#set double_format=%+.12lg
#set profiler=1
#set randomseed=10
#set relax_naming_rules=1
#set savefile=test.xml
#set minimum_timestep=1

clock {
	timezone PST+8PDT;
	starttime '2013-07-01 00:00:00';
	stoptime '2013-07-09 00:00:00';
}

module climate;
module market;
module powerflow {
	solver_method FBS;
	NR_iteration_limit 100;
}
module residential {
	implicit_enduses NONE;
}
module tape;
module generators;

// only the heating setpoint schedule is used here
#include "${SCHED_PATH}/water_and_setpoint_schedule_v3.glm";
#include "${SCHED_PATH}/appliance_schedules.glm";

// summer
#define FIXED_PRICE=0.127
// winter
//#define FIXED_PRICE=0.088

object climate {
  name localWeather;
//     tmyfile "../../support/weather/AZ-Tucson_International_Ap.tmy3";
  interpolate QUADRATIC;
	latitude 32.133;
	longitude -111.95;
  tz_meridian -105.0;
}


class player {
      double value;
}

object player {
    name PHASE_A;
    file "phase_A.player";
    loop 1;
}
object player {
    name PHASE_B;
    file "phase_B.player";
    loop 1;
}
object player {
    name PHASE_C;
    file "phase_C.player";
    loop 1;
}

object transformer_configuration {
	name substation_config;
	connect_type WYE_WYE;
	install_type PADMOUNT;
	power_rating 450;
	powerA_rating 150 kVA;
	powerB_rating 150;
	powerC_rating 150;
	primary_voltage 133000;
	secondary_voltage 7200;
	impedance +0.0015+0.00675j;
}

object transformer_configuration {
	name default_transformer_A;
	connect_type SINGLE_PHASE_CENTER_TAPPED;
	install_type PADMOUNT;
	power_rating 150;
	powerA_rating 150 kVA;
	primary_voltage 7200;
	secondary_voltage 120;
	impedance +0.015+0.0675j;
}

object transformer_configuration {
	name default_transformer_B;
	connect_type SINGLE_PHASE_CENTER_TAPPED;
	install_type PADMOUNT;
	power_rating 150;
	powerB_rating 150;
	primary_voltage 7200;
	secondary_voltage 120;
	impedance +0.015+0.0675j;
}

object transformer_configuration {
	name default_transformer_C;
	connect_type SINGLE_PHASE_CENTER_TAPPED;
	install_type PADMOUNT;
	power_rating 150;
	powerC_rating 150;
	primary_voltage 7200;
	secondary_voltage 120;
	impedance +0.015+0.0675j;
}

// overhead line configuration
object line_configuration:601 {
  spacing line_spacing:500601;
  conductor_N overhead_line_conductor:6020;
  conductor_C overhead_line_conductor:6010;
  conductor_B overhead_line_conductor:6010;
  conductor_A overhead_line_conductor:6010;
}

object line_spacing:500601 {
  distance_CN 5.0;
  distance_AN 4.272002;
  distance_BN 5.656854;
  distance_BC 7.0;
  distance_AC 4.5;
  distance_AB 2.5;
}

object overhead_line_conductor:6010 {
  resistance 0.185900;
  geometric_mean_radius 0.031300;
}

object overhead_line_conductor:6020 {
  resistance 0.592000;
  geometric_mean_radius 0.00814;
}


object triplex_line_conductor {
	name Name_1_0_AA_triplex;
	resistance 0.57;
	geometric_mean_radius 0.011;
}

object triplex_line_configuration {
	name TLCFG;
	conductor_1 Name_1_0_AA_triplex;
	conductor_2 Name_1_0_AA_triplex;
	conductor_N Name_1_0_AA_triplex;
	insulation_thickness 0.08;
	diameter 0.368;
}



// substation for the MATPOWER/PYPOWER interface
object substation {
	name network_node;
	phases ABCN;
	nominal_voltage 133000;
	positive_sequence_voltage 133000;
	bustype SWING;
    base_power 12MVA;
    power_convergence_value 100VA;
}

// substation transformer
object transformer {
	name sub_transformer;
	groupid Network_Trans;
	phases ABCN;
	from network_node;
	to transformer_meter;
	configuration substation_config;
}

// transformer meter
object meter {
	name transformer_meter;
	phases ABCN;
	nominal_voltage 7200;
}

// unresponsive load
object load {
     name unresp_load;
     nominal_voltage 7200;
     phases ABCN;
     parent transformer_meter;
	 
     base_power_A PHASE_A.value*0.1;
     base_power_B PHASE_B.value*0.1;
     base_power_C PHASE_C.value*0.1;
	 
	 power_pf_A 0.9;
	 power_pf_B 0.9;
	 power_pf_C 0.9;
	 
	 power_fraction_A 1.0;
	 power_fraction_B 1.0;
	 power_fraction_C 1.0;
	 
	 current_fraction_A 0.0;
	 current_fraction_B 0.0;
	 current_fraction_C 0.0;
	 
	 impedance_fraction_A 0.0;
	 impedance_fraction_B 0.0;
	 impedance_fraction_C 0.0;
}

///////////////////////////////
///////code generated by python
///////////////////////////////

object transformer {
	name F0_center_tap_transformer_A;
	phases SA;
	from transformer_meter;
	to F0_triplex_node_A;
	configuration default_transformer_A;
}

object triplex_meter {
	name F0_triplex_node_A;
	phases SA;
	nominal_voltage 120;
    groupid VPP_Meter;
}


object triplex_line {
	phases AS;
	from F0_triplex_node_A;
	to H0_meter_billing;
	length 10 ft;
	configuration TLCFG;
}

object triplex_meter {
	name H0_meter_billing;
	phases AS;
	nominal_voltage 120;
	bill_mode UNIFORM;
    bill_day 1;
    monthly_fee 6;
    price ${FIXED_PRICE};
}

object triplex_line {
	phases AS;
	from H0_meter_billing;
	to H0_meter_house;
	length 10 ft;
	configuration TLCFG;
}

object triplex_meter {
	name H0_meter_house;
	groupid F0_meter;
	phases AS;
	nominal_voltage 120;
}

object house {
	name H0;
    groupid VPP_0;
	parent H0_meter_house;
	schedule_skew -2743;
	Rroof 16.017000000000003;
	Rwall 9.232000000000001;
	Rfloor 9.990000000000002;
	Rdoors 3;
	Rwindows 1.088;
	airchange_per_hour 0.916;
	hvac_power_factor 0.97;
	cooling_system_type ELECTRIC;
	heating_system_type NONE;
	fan_type ONE_SPEED;
	hvac_breaker_rating 200;
	total_thermal_mass_per_floor_area 3.208;
	motor_efficiency AVERAGE;
	motor_model BASIC;
	cooling_COP 3.6929999999999996;
	floor_area 1266.1509999999998;
	number_of_doors 2;
	air_temperature 73;
	mass_temperature 73;
    system_mode COOL;
    thermostat_cycle_time 5;
    thermostat_mode OFF;
    cooling_setpoint 10;
	heating_setpoint 1.0;

    object ZIPload {
  schedule_skew -2743;
  heat_fraction 0.709;
  base_power LIGHTS*2.4618;
  power_pf -0.78;
  power_fraction 0.6;
  current_pf 0.42;
  current_fraction 0;
  impedance_pf -0.88;
  impedance_fraction 0.4;
};
object ZIPload {
  schedule_skew -2743;
  heat_fraction 0.692;
  base_power CLOTHESWASHER*0.6618;
  power_pf 0.97;
  power_fraction 1;
  current_pf 0.97;
  current_fraction 0;
  impedance_pf 0.97;
  impedance_fraction 0;
};
object ZIPload {
  schedule_skew -2743;
  heat_fraction 0.818;
  base_power REFRIGERATOR*0.5206;
  power_pf 0.97;
  power_fraction 1;
  current_pf 0.97;
  current_fraction 0;
  impedance_pf 0.97;
  impedance_fraction 0;
};
object ZIPload {
  schedule_skew -2743;
  heat_fraction 0.744;
  base_power DRYER*1.2617;
  power_pf 0.9;
  power_fraction 0.1;
  current_pf 0.9;
  current_fraction 0.1;
  impedance_pf 1;
  impedance_fraction 0.8;
};
object ZIPload {
  schedule_skew -2743;
  heat_fraction 0.677;
  base_power RANGE*0.9234;
  power_pf 0;
  power_fraction 0;
  current_pf 0;
  current_fraction 0;
  impedance_pf 1;
  impedance_fraction 1;
};
object ZIPload {
  schedule_skew -2743;
  heat_fraction 0.863;
  base_power MICROWAVE*0.9539;
  power_pf 0.97;
  power_fraction 1;
  current_pf 0.97;
  current_fraction 0;
  impedance_pf 0.97;
  impedance_fraction 0;
};

}
object triplex_line {
	phases AS;
	from H0_meter_billing;
	to H0_ev_meter;
	length 10 ft;
	configuration TLCFG;
}

object triplex_meter {
	name H0_ev_meter;
	phases AS;
	nominal_voltage 120;
}

object load {
    name H0_ev;
    parent H0_ev_meter;
};

object triplex_line {
	phases AS;
	from F0_triplex_node_A;
	to H1_meter_billing;
	length 10 ft;
	configuration TLCFG;
}

object triplex_meter {
	name H1_meter_billing;
	phases AS;
	nominal_voltage 120;
	bill_mode UNIFORM;
    bill_day 1;
    monthly_fee 6;
    price ${FIXED_PRICE};
}

object triplex_line {
	phases AS;
	from H1_meter_billing;
	to H1_meter_house;
	length 10 ft;
	configuration TLCFG;
}

object triplex_meter {
	name H1_meter_house;
	groupid F0_meter;
	phases AS;
	nominal_voltage 120;
}

object house {
	name H1;
    groupid VPP_0;
	parent H1_meter_house;
	schedule_skew -870;
	Rroof 28.810999999999996;
	Rwall 19.548;
	Rfloor 13.348;
	Rdoors 5;
	Rwindows 1.406;
	airchange_per_hour 1.176;
	hvac_power_factor 0.97;
	cooling_system_type ELECTRIC;
	heating_system_type NONE;
	fan_type ONE_SPEED;
	hvac_breaker_rating 200;
	total_thermal_mass_per_floor_area 4.7700000000000005;
	motor_efficiency AVERAGE;
	motor_model BASIC;
	cooling_COP 3.5;
	floor_area 1460.8310000000001;
	number_of_doors 2;
	air_temperature 73;
	mass_temperature 73;
    system_mode COOL;
    thermostat_cycle_time 5;
    thermostat_mode OFF;
    cooling_setpoint 10;
	heating_setpoint 1.0;

    object ZIPload {
  schedule_skew -870;
  heat_fraction 0.918;
  base_power LIGHTS*1.4554;
  power_pf -0.78;
  power_fraction 0.6;
  current_pf 0.42;
  current_fraction 0;
  impedance_pf -0.88;
  impedance_fraction 0.4;
};
object ZIPload {
  schedule_skew -870;
  heat_fraction 0.83;
  base_power CLOTHESWASHER*1.2004;
  power_pf 0.97;
  power_fraction 1;
  current_pf 0.97;
  current_fraction 0;
  impedance_pf 0.97;
  impedance_fraction 0;
};
object ZIPload {
  schedule_skew -870;
  heat_fraction 0.765;
  base_power REFRIGERATOR*0.8814;
  power_pf 0.97;
  power_fraction 1;
  current_pf 0.97;
  current_fraction 0;
  impedance_pf 0.97;
  impedance_fraction 0;
};
object ZIPload {
  schedule_skew -870;
  heat_fraction 0.692;
  base_power DRYER*1.1884;
  power_pf 0.9;
  power_fraction 0.1;
  current_pf 0.9;
  current_fraction 0.1;
  impedance_pf 1;
  impedance_fraction 0.8;
};
object ZIPload {
  schedule_skew -870;
  heat_fraction 0.906;
  base_power RANGE*0.9186;
  power_pf 0;
  power_fraction 0;
  current_pf 0;
  current_fraction 0;
  impedance_pf 1;
  impedance_fraction 1;
};
object ZIPload {
  schedule_skew -870;
  heat_fraction 0.8;
  base_power MICROWAVE*0.4692;
  power_pf 0.97;
  power_fraction 1;
  current_pf 0.97;
  current_fraction 0;
  impedance_pf 0.97;
  impedance_fraction 0;
};

}
object triplex_line {
	phases AS;
	from H1_meter_billing;
	to H1_ev_meter;
	length 10 ft;
	configuration TLCFG;
}

object triplex_meter {
	name H1_ev_meter;
	phases AS;
	nominal_voltage 120;
}

object load {
    name H1_ev;
    parent H1_ev_meter;
};

object triplex_line {
	phases AS;
	from F0_triplex_node_A;
	to H2_meter_billing;
	length 10 ft;
	configuration TLCFG;
}

object triplex_meter {
	name H2_meter_billing;
	phases AS;
	nominal_voltage 120;
	bill_mode UNIFORM;
    bill_day 1;
    monthly_fee 6;
    price ${FIXED_PRICE};
}

object triplex_line {
	phases AS;
	from H2_meter_billing;
	to H2_meter_house;
	length 10 ft;
	configuration TLCFG;
}

object triplex_meter {
	name H2_meter_house;
	groupid F0_meter;
	phases AS;
	nominal_voltage 120;
}

object house {
	name H2;
    groupid VPP_0;
	parent H2_meter_house;
	schedule_skew 2933;
	Rroof 28.52;
	Rwall 19.575;
	Rfloor 16.759999999999998;
	Rdoors 5;
	Rwindows 2.241;
	airchange_per_hour 1.187;
	hvac_power_factor 0.97;
	cooling_system_type ELECTRIC;
	heating_system_type NONE;
	fan_type ONE_SPEED;
	hvac_breaker_rating 200;
	total_thermal_mass_per_floor_area 3.356;
	motor_efficiency AVERAGE;
	motor_model BASIC;
	cooling_COP 4.071;
	floor_area 1432.034;
	number_of_doors 2;
	air_temperature 72;
	mass_temperature 72;
    system_mode COOL;
    thermostat_cycle_time 5;
    thermostat_mode OFF;
    cooling_setpoint 10;
	heating_setpoint 1.0;

    object ZIPload {
  schedule_skew 2933;
  heat_fraction 0.73;
  base_power LIGHTS*1.8146;
  power_pf -0.78;
  power_fraction 0.6;
  current_pf 0.42;
  current_fraction 0;
  impedance_pf -0.88;
  impedance_fraction 0.4;
};
object ZIPload {
  schedule_skew 2933;
  heat_fraction 0.66;
  base_power CLOTHESWASHER*0.5212;
  power_pf 0.97;
  power_fraction 1;
  current_pf 0.97;
  current_fraction 0;
  impedance_pf 0.97;
  impedance_fraction 0;
};
object ZIPload {
  schedule_skew 2933;
  heat_fraction 0.723;
  base_power REFRIGERATOR*1.1318;
  power_pf 0.97;
  power_fraction 1;
  current_pf 0.97;
  current_fraction 0;
  impedance_pf 0.97;
  impedance_fraction 0;
};
object ZIPload {
  schedule_skew 2933;
  heat_fraction 0.851;
  base_power DRYER*1.2189;
  power_pf 0.9;
  power_fraction 0.1;
  current_pf 0.9;
  current_fraction 0.1;
  impedance_pf 1;
  impedance_fraction 0.8;
};
object ZIPload {
  schedule_skew 2933;
  heat_fraction 0.776;
  base_power DISHWASHER*0.7379;
  power_pf 0.97;
  power_fraction 1;
  current_pf 0.97;
  current_fraction 0;
  impedance_pf 0.97;
  impedance_fraction 0;
};
object ZIPload {
  schedule_skew 2933;
  heat_fraction 0.929;
  base_power RANGE*0.5542;
  power_pf 0;
  power_fraction 0;
  current_pf 0;
  current_fraction 0;
  impedance_pf 1;
  impedance_fraction 1;
};
object ZIPload {
  schedule_skew 2933;
  heat_fraction 0.873;
  base_power MICROWAVE*0.5019;
  power_pf 0.97;
  power_fraction 1;
  current_pf 0.97;
  current_fraction 0;
  impedance_pf 0.97;
  impedance_fraction 0;
};

}
object triplex_line {
	phases AS;
	from H2_meter_billing;
	to H2_ev_meter;
	length 10 ft;
	configuration TLCFG;
}

object triplex_meter {
	name H2_ev_meter;
	phases AS;
	nominal_voltage 120;
}

object load {
    name H2_ev;
    parent H2_ev_meter;
};

object triplex_line {
	phases AS;
	from F0_triplex_node_A;
	to H3_meter_billing;
	length 10 ft;
	configuration TLCFG;
}

object triplex_meter {
	name H3_meter_billing;
	phases AS;
	nominal_voltage 120;
	bill_mode UNIFORM;
    bill_day 1;
    monthly_fee 6;
    price ${FIXED_PRICE};
}

object triplex_line {
	phases AS;
	from H3_meter_billing;
	to H3_meter_house;
	length 10 ft;
	configuration TLCFG;
}

object triplex_meter {
	name H3_meter_house;
	groupid F0_meter;
	phases AS;
	nominal_voltage 120;
}

object house {
	name H3;
    groupid VPP_0;
	parent H3_meter_house;
	schedule_skew 355;
	Rroof 31.46;
	Rwall 18.849999999999998;
	Rfloor 12.998999999999999;
	Rdoors 5;
	Rwindows 1.66;
	airchange_per_hour 0.812;
	hvac_power_factor 0.97;
	cooling_system_type ELECTRIC;
	heating_system_type NONE;
	fan_type ONE_SPEED;
	hvac_breaker_rating 200;
	total_thermal_mass_per_floor_area 3.349;
	motor_efficiency AVERAGE;
	motor_model BASIC;
	cooling_COP 3.834;
	floor_area 839.6689999999999;
	number_of_doors 1;
	air_temperature 73;
	mass_temperature 73;
    system_mode COOL;
    thermostat_cycle_time 5;
    thermostat_mode OFF;
    cooling_setpoint 10;
	heating_setpoint 1.0;

    object ZIPload {
  schedule_skew 355;
  heat_fraction 0.71;
  base_power LIGHTS*1.3151;
  power_pf -0.78;
  power_fraction 0.6;
  current_pf 0.42;
  current_fraction 0;
  impedance_pf -0.88;
  impedance_fraction 0.4;
};
object ZIPload {
  schedule_skew 355;
  heat_fraction 0.67;
  base_power CLOTHESWASHER*0.8809;
  power_pf 0.97;
  power_fraction 1;
  current_pf 0.97;
  current_fraction 0;
  impedance_pf 0.97;
  impedance_fraction 0;
};
object ZIPload {
  schedule_skew 355;
  heat_fraction 0.656;
  base_power REFRIGERATOR*0.7265;
  power_pf 0.97;
  power_fraction 1;
  current_pf 0.97;
  current_fraction 0;
  impedance_pf 0.97;
  impedance_fraction 0;
};
object ZIPload {
  schedule_skew 355;
  heat_fraction 0.912;
  base_power DRYER*0.4669;
  power_pf 0.9;
  power_fraction 0.1;
  current_pf 0.9;
  current_fraction 0.1;
  impedance_pf 1;
  impedance_fraction 0.8;
};
object ZIPload {
  schedule_skew 355;
  heat_fraction 0.829;
  base_power RANGE*0.4825;
  power_pf 0;
  power_fraction 0;
  current_pf 0;
  current_fraction 0;
  impedance_pf 1;
  impedance_fraction 1;
};
object ZIPload {
  schedule_skew 355;
  heat_fraction 0.865;
  base_power MICROWAVE*0.3953;
  power_pf 0.97;
  power_fraction 1;
  current_pf 0.97;
  current_fraction 0;
  impedance_pf 0.97;
  impedance_fraction 0;
};

}
object triplex_line {
	phases AS;
	from H3_meter_billing;
	to H3_ev_meter;
	length 10 ft;
	configuration TLCFG;
}

object triplex_meter {
	name H3_ev_meter;
	phases AS;
	nominal_voltage 120;
}

object load {
    name H3_ev;
    parent H3_ev_meter;
};

object triplex_line {
	phases AS;
	from F0_triplex_node_A;
	to H4_meter_billing;
	length 10 ft;
	configuration TLCFG;
}

object triplex_meter {
	name H4_meter_billing;
	phases AS;
	nominal_voltage 120;
	bill_mode UNIFORM;
    bill_day 1;
    monthly_fee 6;
    price ${FIXED_PRICE};
}

object triplex_line {
	phases AS;
	from H4_meter_billing;
	to H4_meter_house;
	length 10 ft;
	configuration TLCFG;
}

object triplex_meter {
	name H4_meter_house;
	groupid F0_meter;
	phases AS;
	nominal_voltage 120;
}

object house {
	name H4;
    groupid VPP_0;
	parent H4_meter_house;
	schedule_skew 2933;
	Rroof 30.5;
	Rwall 17.464999999999996;
	Rfloor 14.73;
	Rdoors 5;
	Rwindows 2.181;
	airchange_per_hour 1.197;
	hvac_power_factor 0.97;
	cooling_system_type ELECTRIC;
	heating_system_type NONE;
	fan_type ONE_SPEED;
	hvac_breaker_rating 200;
	total_thermal_mass_per_floor_area 3.2060000000000004;
	motor_efficiency AVERAGE;
	motor_model BASIC;
	cooling_COP 4.011;
	floor_area 1407.4840000000002;
	number_of_doors 2;
	air_temperature 73;
	mass_temperature 73;
    system_mode COOL;
    thermostat_cycle_time 5;
    thermostat_mode OFF;
    cooling_setpoint 10;
	heating_setpoint 1.0;

    object ZIPload {
  schedule_skew 2933;
  heat_fraction 0.73;
  base_power LIGHTS*1.8146;
  power_pf -0.78;
  power_fraction 0.6;
  current_pf 0.42;
  current_fraction 0;
  impedance_pf -0.88;
  impedance_fraction 0.4;
};
object ZIPload {
  schedule_skew 2933;
  heat_fraction 0.66;
  base_power CLOTHESWASHER*0.5212;
  power_pf 0.97;
  power_fraction 1;
  current_pf 0.97;
  current_fraction 0;
  impedance_pf 0.97;
  impedance_fraction 0;
};
object ZIPload {
  schedule_skew 2933;
  heat_fraction 0.723;
  base_power REFRIGERATOR*1.1318;
  power_pf 0.97;
  power_fraction 1;
  current_pf 0.97;
  current_fraction 0;
  impedance_pf 0.97;
  impedance_fraction 0;
};
object ZIPload {
  schedule_skew 2933;
  heat_fraction 0.851;
  base_power DRYER*1.2189;
  power_pf 0.9;
  power_fraction 0.1;
  current_pf 0.9;
  current_fraction 0.1;
  impedance_pf 1;
  impedance_fraction 0.8;
};
object ZIPload {
  schedule_skew 2933;
  heat_fraction 0.776;
  base_power DISHWASHER*0.7379;
  power_pf 0.97;
  power_fraction 1;
  current_pf 0.97;
  current_fraction 0;
  impedance_pf 0.97;
  impedance_fraction 0;
};
object ZIPload {
  schedule_skew 2933;
  heat_fraction 0.929;
  base_power RANGE*0.5542;
  power_pf 0;
  power_fraction 0;
  current_pf 0;
  current_fraction 0;
  impedance_pf 1;
  impedance_fraction 1;
};
object ZIPload {
  schedule_skew 2933;
  heat_fraction 0.873;
  base_power MICROWAVE*0.5019;
  power_pf 0.97;
  power_fraction 1;
  current_pf 0.97;
  current_fraction 0;
  impedance_pf 0.97;
  impedance_fraction 0;
};

}
object triplex_line {
	phases AS;
	from H4_meter_billing;
	to H4_ev_meter;
	length 10 ft;
	configuration TLCFG;
}

object triplex_meter {
	name H4_ev_meter;
	phases AS;
	nominal_voltage 120;
}

object load {
    name H4_ev;
    parent H4_ev_meter;
};

object triplex_line {
	phases AS;
	from F0_triplex_node_A;
	to H5_meter_billing;
	length 10 ft;
	configuration TLCFG;
}

object triplex_meter {
	name H5_meter_billing;
	phases AS;
	nominal_voltage 120;
	bill_mode UNIFORM;
    bill_day 1;
    monthly_fee 6;
    price ${FIXED_PRICE};
}

object triplex_line {
	phases AS;
	from H5_meter_billing;
	to H5_meter_house;
	length 10 ft;
	configuration TLCFG;
}

object triplex_meter {
	name H5_meter_house;
	groupid F0_meter;
	phases AS;
	nominal_voltage 120;
}

object house {
	name H5;
    groupid VPP_0;
	parent H5_meter_house;
	schedule_skew -1053;
	Rroof 21.294;
	Rwall 14.898;
	Rfloor 11.348;
	Rdoors 3;
	Rwindows 1.188;
	airchange_per_hour 1.017;
	hvac_power_factor 0.97;
	cooling_system_type ELECTRIC;
	heating_system_type NONE;
	fan_type ONE_SPEED;
	hvac_breaker_rating 200;
	total_thermal_mass_per_floor_area 3.22;
	motor_efficiency AVERAGE;
	motor_model BASIC;
	cooling_COP 3.3070000000000004;
	floor_area 583.765;
	number_of_doors 1;
	air_temperature 74;
	mass_temperature 74;
    system_mode COOL;
    thermostat_cycle_time 5;
    thermostat_mode OFF;
    cooling_setpoint 10;
	heating_setpoint 1.0;

    object ZIPload {
  schedule_skew -1053;
  heat_fraction 0.943;
  base_power LIGHTS*1.2858;
  power_pf 0;
  power_fraction 0;
  current_pf 0;
  current_fraction 0;
  impedance_pf 1;
  impedance_fraction 1;
};
object ZIPload {
  schedule_skew -1053;
  heat_fraction 0.796;
  base_power CLOTHESWASHER*0.5579;
  power_pf 0.97;
  power_fraction 1;
  current_pf 0.97;
  current_fraction 0;
  impedance_pf 0.97;
  impedance_fraction 0;
};
object ZIPload {
  schedule_skew -1053;
  heat_fraction 0.873;
  base_power REFRIGERATOR*0.6902;
  power_pf 0.97;
  power_fraction 1;
  current_pf 0.97;
  current_fraction 0;
  impedance_pf 0.97;
  impedance_fraction 0;
};
object ZIPload {
  schedule_skew -1053;
  heat_fraction 0.869;
  base_power DRYER*0.8551;
  power_pf 0.9;
  power_fraction 0.1;
  current_pf 0.9;
  current_fraction 0.1;
  impedance_pf 1;
  impedance_fraction 0.8;
};
object ZIPload {
  schedule_skew -1053;
  heat_fraction 0.931;
  base_power RANGE*0.5889;
  power_pf 0;
  power_fraction 0;
  current_pf 0;
  current_fraction 0;
  impedance_pf 1;
  impedance_fraction 1;
};
object ZIPload {
  schedule_skew -1053;
  heat_fraction 0.695;
  base_power MICROWAVE*0.5648;
  power_pf 0.97;
  power_fraction 1;
  current_pf 0.97;
  current_fraction 0;
  impedance_pf 0.97;
  impedance_fraction 0;
};

}
object triplex_line {
	phases AS;
	from H5_meter_billing;
	to H5_ev_meter;
	length 10 ft;
	configuration TLCFG;
}

object triplex_meter {
	name H5_ev_meter;
	phases AS;
	nominal_voltage 120;
}

object load {
    name H5_ev;
    parent H5_ev_meter;
};

object triplex_line {
	phases AS;
	from F0_triplex_node_A;
	to H6_meter_billing;
	length 10 ft;
	configuration TLCFG;
}

object triplex_meter {
	name H6_meter_billing;
	phases AS;
	nominal_voltage 120;
	bill_mode UNIFORM;
    bill_day 1;
    monthly_fee 6;
    price ${FIXED_PRICE};
}

object triplex_line {
	phases AS;
	from H6_meter_billing;
	to H6_meter_house;
	length 10 ft;
	configuration TLCFG;
}

object triplex_meter {
	name H6_meter_house;
	groupid F0_meter;
	phases AS;
	nominal_voltage 120;
}

object house {
	name H6;
    groupid VPP_0;
	parent H6_meter_house;
	schedule_skew -891;
	Rroof 26.851000000000003;
	Rwall 22.634;
	Rfloor 14.284999999999998;
	Rdoors 5;
	Rwindows 1.27;
	airchange_per_hour 1.2020000000000002;
	hvac_power_factor 0.97;
	cooling_system_type ELECTRIC;
	heating_system_type NONE;
	fan_type ONE_SPEED;
	hvac_breaker_rating 200;
	total_thermal_mass_per_floor_area 4.135;
	motor_efficiency AVERAGE;
	motor_model BASIC;
	cooling_COP 3.8269999999999995;
	floor_area 1366.004;
	number_of_doors 2;
	air_temperature 73;
	mass_temperature 73;
    system_mode COOL;
    thermostat_cycle_time 5;
    thermostat_mode OFF;
    cooling_setpoint 10;
	heating_setpoint 1.0;

    object ZIPload {
  schedule_skew -891;
  heat_fraction 0.851;
  base_power LIGHTS*0.9811;
  power_pf 0;
  power_fraction 0;
  current_pf 0;
  current_fraction 0;
  impedance_pf 1;
  impedance_fraction 1;
};
object ZIPload {
  schedule_skew -891;
  heat_fraction 0.83;
  base_power CLOTHESWASHER*0.5962;
  power_pf 0.97;
  power_fraction 1;
  current_pf 0.97;
  current_fraction 0;
  impedance_pf 0.97;
  impedance_fraction 0;
};
object ZIPload {
  schedule_skew -891;
  heat_fraction 0.671;
  base_power REFRIGERATOR*1.1742;
  power_pf 0.97;
  power_fraction 1;
  current_pf 0.97;
  current_fraction 0;
  impedance_pf 0.97;
  impedance_fraction 0;
};
object ZIPload {
  schedule_skew -891;
  heat_fraction 0.924;
  base_power DRYER*0.6654;
  power_pf 0.9;
  power_fraction 0.1;
  current_pf 0.9;
  current_fraction 0.1;
  impedance_pf 1;
  impedance_fraction 0.8;
};
object ZIPload {
  schedule_skew -891;
  heat_fraction 0.923;
  base_power RANGE*0.4997;
  power_pf 0;
  power_fraction 0;
  current_pf 0;
  current_fraction 0;
  impedance_pf 1;
  impedance_fraction 1;
};
object ZIPload {
  schedule_skew -891;
  heat_fraction 0.693;
  base_power MICROWAVE*0.5191;
  power_pf 0.97;
  power_fraction 1;
  current_pf 0.97;
  current_fraction 0;
  impedance_pf 0.97;
  impedance_fraction 0;
};

}
object triplex_line {
	phases AS;
	from H6_meter_billing;
	to H6_ev_meter;
	length 10 ft;
	configuration TLCFG;
}

object triplex_meter {
	name H6_ev_meter;
	phases AS;
	nominal_voltage 120;
}

object load {
    name H6_ev;
    parent H6_ev_meter;
};

object triplex_line {
	phases AS;
	from F0_triplex_node_A;
	to H7_meter_billing;
	length 10 ft;
	configuration TLCFG;
}

object triplex_meter {
	name H7_meter_billing;
	phases AS;
	nominal_voltage 120;
	bill_mode UNIFORM;
    bill_day 1;
    monthly_fee 6;
    price ${FIXED_PRICE};
}

object triplex_line {
	phases AS;
	from H7_meter_billing;
	to H7_meter_house;
	length 10 ft;
	configuration TLCFG;
}

object triplex_meter {
	name H7_meter_house;
	groupid F0_meter;
	phases AS;
	nominal_voltage 120;
}

object house {
	name H7;
    groupid VPP_0;
	parent H7_meter_house;
	schedule_skew -719;
	Rroof 20.884;
	Rwall 13.760000000000002;
	Rfloor 10.111;
	Rdoors 3;
	Rwindows 0.842;
	airchange_per_hour 1.107;
	hvac_power_factor 0.97;
	cooling_system_type ELECTRIC;
	heating_system_type NONE;
	fan_type ONE_SPEED;
	hvac_breaker_rating 200;
	total_thermal_mass_per_floor_area 5.071;
	motor_efficiency AVERAGE;
	motor_model BASIC;
	cooling_COP 3.587;
	floor_area 920.196;
	number_of_doors 1;
	air_temperature 73;
	mass_temperature 73;
    system_mode COOL;
    thermostat_cycle_time 5;
    thermostat_mode OFF;
    cooling_setpoint 10;
	heating_setpoint 1.0;

    object ZIPload {
  schedule_skew -719;
  heat_fraction 0.738;
  base_power LIGHTS*2.0005;
  power_pf -0.78;
  power_fraction 0.6;
  current_pf 0.42;
  current_fraction 0;
  impedance_pf -0.88;
  impedance_fraction 0.4;
};
object ZIPload {
  schedule_skew -719;
  heat_fraction 0.912;
  base_power CLOTHESWASHER*0.7509;
  power_pf 0.97;
  power_fraction 1;
  current_pf 0.97;
  current_fraction 0;
  impedance_pf 0.97;
  impedance_fraction 0;
};
object ZIPload {
  schedule_skew -719;
  heat_fraction 0.68;
  base_power REFRIGERATOR*0.5147;
  power_pf 0.97;
  power_fraction 1;
  current_pf 0.97;
  current_fraction 0;
  impedance_pf 0.97;
  impedance_fraction 0;
};
object ZIPload {
  schedule_skew -719;
  heat_fraction 0.923;
  base_power DRYER*0.8724;
  power_pf 0.9;
  power_fraction 0.1;
  current_pf 0.9;
  current_fraction 0.1;
  impedance_pf 1;
  impedance_fraction 0.8;
};
object ZIPload {
  schedule_skew -719;
  heat_fraction 0.902;
  base_power RANGE*0.8541;
  power_pf 0;
  power_fraction 0;
  current_pf 0;
  current_fraction 0;
  impedance_pf 1;
  impedance_fraction 1;
};
object ZIPload {
  schedule_skew -719;
  heat_fraction 0.923;
  base_power MICROWAVE*0.9953;
  power_pf 0.97;
  power_fraction 1;
  current_pf 0.97;
  current_fraction 0;
  impedance_pf 0.97;
  impedance_fraction 0;
};

}
object triplex_line {
	phases AS;
	from H7_meter_billing;
	to H7_ev_meter;
	length 10 ft;
	configuration TLCFG;
}

object triplex_meter {
	name H7_ev_meter;
	phases AS;
	nominal_voltage 120;
}

object load {
    name H7_ev;
    parent H7_ev_meter;
};

object triplex_line {
	phases AS;
	from F0_triplex_node_A;
	to H8_meter_billing;
	length 10 ft;
	configuration TLCFG;
}

object triplex_meter {
	name H8_meter_billing;
	phases AS;
	nominal_voltage 120;
	bill_mode UNIFORM;
    bill_day 1;
    monthly_fee 6;
    price ${FIXED_PRICE};
}

object triplex_line {
	phases AS;
	from H8_meter_billing;
	to H8_meter_house;
	length 10 ft;
	configuration TLCFG;
}

object triplex_meter {
	name H8_meter_house;
	groupid F0_meter;
	phases AS;
	nominal_voltage 120;
}

object house {
	name H8;
    groupid VPP_0;
	parent H8_meter_house;
	schedule_skew -2745;
	Rroof 15.847000000000001;
	Rwall 8.802;
	Rfloor 11.580000000000002;
	Rdoors 3;
	Rwindows 0.998;
	airchange_per_hour 1.056;
	hvac_power_factor 0.97;
	cooling_system_type ELECTRIC;
	heating_system_type NONE;
	fan_type ONE_SPEED;
	hvac_breaker_rating 200;
	total_thermal_mass_per_floor_area 3.428;
	motor_efficiency AVERAGE;
	motor_model BASIC;
	cooling_COP 3.483;
	floor_area 1258.1309999999999;
	number_of_doors 2;
	air_temperature 72;
	mass_temperature 72;
    system_mode COOL;
    thermostat_cycle_time 5;
    thermostat_mode OFF;
    cooling_setpoint 10;
	heating_setpoint 1.0;

    object ZIPload {
  schedule_skew -2745;
  heat_fraction 0.709;
  base_power LIGHTS*2.4618;
  power_pf -0.78;
  power_fraction 0.6;
  current_pf 0.42;
  current_fraction 0;
  impedance_pf -0.88;
  impedance_fraction 0.4;
};
object ZIPload {
  schedule_skew -2745;
  heat_fraction 0.692;
  base_power CLOTHESWASHER*0.6618;
  power_pf 0.97;
  power_fraction 1;
  current_pf 0.97;
  current_fraction 0;
  impedance_pf 0.97;
  impedance_fraction 0;
};
object ZIPload {
  schedule_skew -2745;
  heat_fraction 0.818;
  base_power REFRIGERATOR*0.5206;
  power_pf 0.97;
  power_fraction 1;
  current_pf 0.97;
  current_fraction 0;
  impedance_pf 0.97;
  impedance_fraction 0;
};
object ZIPload {
  schedule_skew -2745;
  heat_fraction 0.744;
  base_power DRYER*1.2617;
  power_pf 0.9;
  power_fraction 0.1;
  current_pf 0.9;
  current_fraction 0.1;
  impedance_pf 1;
  impedance_fraction 0.8;
};
object ZIPload {
  schedule_skew -2745;
  heat_fraction 0.677;
  base_power RANGE*0.9234;
  power_pf 0;
  power_fraction 0;
  current_pf 0;
  current_fraction 0;
  impedance_pf 1;
  impedance_fraction 1;
};
object ZIPload {
  schedule_skew -2745;
  heat_fraction 0.863;
  base_power MICROWAVE*0.9539;
  power_pf 0.97;
  power_fraction 1;
  current_pf 0.97;
  current_fraction 0;
  impedance_pf 0.97;
  impedance_fraction 0;
};

}
object triplex_line {
	phases AS;
	from H8_meter_billing;
	to H8_ev_meter;
	length 10 ft;
	configuration TLCFG;
}

object triplex_meter {
	name H8_ev_meter;
	phases AS;
	nominal_voltage 120;
}

object load {
    name H8_ev;
    parent H8_ev_meter;
};

object triplex_line {
	phases AS;
	from F0_triplex_node_A;
	to H9_meter_billing;
	length 10 ft;
	configuration TLCFG;
}

object triplex_meter {
	name H9_meter_billing;
	phases AS;
	nominal_voltage 120;
	bill_mode UNIFORM;
    bill_day 1;
    monthly_fee 6;
    price ${FIXED_PRICE};
}

object triplex_line {
	phases AS;
	from H9_meter_billing;
	to H9_meter_house;
	length 10 ft;
	configuration TLCFG;
}
