#set double_format=%+.12lg
#set profiler=1
#set randomseed=10
#set relax_naming_rules=1
#set savefile=test.xml
#set minimum_timestep=1

clock {
	timezone PST+8PDT;
	starttime '2013-07-01 00:00:00';
	stoptime '2013-07-09 00:00:00';
}

module climate;
module market;
module powerflow {
	solver_method FBS;
	NR_iteration_limit 100;
}
module residential {
	implicit_enduses NONE;
}
module tape;
module generators;

// only the heating setpoint schedule is used here
#include "${SCHED_PATH}/water_and_setpoint_schedule_v3.glm";
#include "${SCHED_PATH}/appliance_schedules.glm";

// summer
#define FIXED_PRICE=0.127
// winter
//#define FIXED_PRICE=0.088

object climate {
  name localWeather;
//     tmyfile "../../support/weather/AZ-Tucson_International_Ap.tmy3";
  interpolate QUADRATIC;
	latitude 32.133;
	longitude -111.95;
  tz_meridian -105.0;
}


class player {
      double value;
}

object player {
    name PHASE_A;
    file "phase_A.player";
    loop 1;
}
object player {
    name PHASE_B;
    file "phase_B.player";
    loop 1;
}
object player {
    name PHASE_C;
    file "phase_C.player";
    loop 1;
}

object transformer_configuration {
	name substation_config;
	connect_type WYE_WYE;
	install_type PADMOUNT;
	power_rating 450;
	powerA_rating 150 kVA;
	powerB_rating 150;
	powerC_rating 150;
	primary_voltage 133000;
	secondary_voltage 7200;
	impedance +0.0015+0.00675j;
}

object transformer_configuration {
	name default_transformer_A;
	connect_type SINGLE_PHASE_CENTER_TAPPED;
	install_type PADMOUNT;
	power_rating 150;
	powerA_rating 150 kVA;
	primary_voltage 7200;
	secondary_voltage 120;
	impedance +0.015+0.0675j;
}

object transformer_configuration {
	name default_transformer_B;
	connect_type SINGLE_PHASE_CENTER_TAPPED;
	install_type PADMOUNT;
	power_rating 150;
	powerB_rating 150;
	primary_voltage 7200;
	secondary_voltage 120;
	impedance +0.015+0.0675j;
}

object transformer_configuration {
	name default_transformer_C;
	connect_type SINGLE_PHASE_CENTER_TAPPED;
	install_type PADMOUNT;
	power_rating 150;
	powerC_rating 150;
	primary_voltage 7200;
	secondary_voltage 120;
	impedance +0.015+0.0675j;
}

// overhead line configuration
object line_configuration:601 {
  spacing line_spacing:500601;
  conductor_N overhead_line_conductor:6020;
  conductor_C overhead_line_conductor:6010;
  conductor_B overhead_line_conductor:6010;
  conductor_A overhead_line_conductor:6010;
}

object line_spacing:500601 {
  distance_CN 5.0;
  distance_AN 4.272002;
  distance_BN 5.656854;
  distance_BC 7.0;
  distance_AC 4.5;
  distance_AB 2.5;
}

object overhead_line_conductor:6010 {
  resistance 0.185900;
  geometric_mean_radius 0.031300;
}

object overhead_line_conductor:6020 {
  resistance 0.592000;
  geometric_mean_radius 0.00814;
}


object triplex_line_conductor {
	name Name_1_0_AA_triplex;
	resistance 0.57;
	geometric_mean_radius 0.011;
}

object triplex_line_configuration {
	name TLCFG;
	conductor_1 Name_1_0_AA_triplex;
	conductor_2 Name_1_0_AA_triplex;
	conductor_N Name_1_0_AA_triplex;
	insulation_thickness 0.08;
	diameter 0.368;
}



// substation for the MATPOWER/PYPOWER interface
object substation {
	name network_node;
	phases ABCN;
	nominal_voltage 133000;
	positive_sequence_voltage 133000;
	bustype SWING;
    base_power 12MVA;
    power_convergence_value 100VA;
}

// substation transformer
object transformer {
	name sub_transformer;
	groupid Network_Trans;
	phases ABCN;
	from network_node;
	to transformer_meter;
	configuration substation_config;
}

// transformer meter
object meter {
	name transformer_meter;
	phases ABCN;
	nominal_voltage 7200;
}

// unresponsive load
object load {
     name unresp_load;
     nominal_voltage 7200;
     phases ABCN;
     parent transformer_meter;
	 
     base_power_A PHASE_A.value*0.1;
     base_power_B PHASE_B.value*0.1;
     base_power_C PHASE_C.value*0.1;
	 
	 power_pf_A 0.9;
	 power_pf_B 0.9;
	 power_pf_C 0.9;
	 
	 power_fraction_A 1.0;
	 power_fraction_B 1.0;
	 power_fraction_C 1.0;
	 
	 current_fraction_A 0.0;
	 current_fraction_B 0.0;
	 current_fraction_C 0.0;
	 
	 impedance_fraction_A 0.0;
	 impedance_fraction_B 0.0;
	 impedance_fraction_C 0.0;
}

///////////////////////////////
///////code generated by python
///////////////////////////////

object transformer {
	name F0_center_tap_transformer_A;
	phases SA;
	from transformer_meter;
	to F0_triplex_node_A;
	configuration default_transformer_A;
}

object triplex_meter {
	name F0_triplex_node_A;
	phases SA;
	nominal_voltage 120;
    groupid VPP_Meter;
}


object triplex_line {
	phases AS;
	from F0_triplex_node_A;
	to H0_meter_billing;
	length 10 ft;
	configuration TLCFG;
}

object triplex_meter {
	name H0_meter_billing;
	phases AS;
	nominal_voltage 120;
	bill_mode UNIFORM;
    bill_day 1;
    monthly_fee 6;
    price ${FIXED_PRICE};
}

object triplex_line {
	phases AS;
	from H0_meter_billing;
	to H0_meter_house;
	length 10 ft;
	configuration TLCFG;
}

object triplex_meter {
	name H0_meter_house;
	groupid F0_meter;
	phases AS;
	nominal_voltage 120;
}

object house {
	name H0;
    groupid VPP_0;
	parent H0_meter_house;
	schedule_skew 2918;
	Rroof 29.3;
	Rwall 19.105;
	Rfloor 14.16;
	Rdoors 5;
	Rwindows 2.2110000000000003;
	airchange_per_hour 1.147;
	hvac_power_factor 0.97;
	cooling_system_type ELECTRIC;
	heating_system_type NONE;
	fan_type ONE_SPEED;
	hvac_breaker_rating 200;
	total_thermal_mass_per_floor_area 3.2060000000000004;
	motor_efficiency AVERAGE;
	motor_model BASIC;
	cooling_COP 4.021;
	floor_area 1425.604;
	number_of_doors 2;
	air_temperature 74;
	mass_temperature 74;
    system_mode COOL;
    thermostat_cycle_time 5;
    thermostat_mode OFF;
    cooling_setpoint 10;
	heating_setpoint 1.0;

    object ZIPload {
  schedule_skew 2918;
  heat_fraction 0.73;
  base_power LIGHTS*1.8146;
  power_pf -0.78;
  power_fraction 0.6;
  current_pf 0.42;
  current_fraction 0;
  impedance_pf -0.88;
  impedance_fraction 0.4;
};
object ZIPload {
  schedule_skew 2918;
  heat_fraction 0.66;
  base_power CLOTHESWASHER*0.5212;
  power_pf 0.97;
  power_fraction 1;
  current_pf 0.97;
  current_fraction 0;
  impedance_pf 0.97;
  impedance_fraction 0;
};
object ZIPload {
  schedule_skew 2918;
  heat_fraction 0.723;
  base_power REFRIGERATOR*1.1318;
  power_pf 0.97;
  power_fraction 1;
  current_pf 0.97;
  current_fraction 0;
  impedance_pf 0.97;
  impedance_fraction 0;
};
object ZIPload {
  schedule_skew 2918;
  heat_fraction 0.851;
  base_power DRYER*1.2189;
  power_pf 0.9;
  power_fraction 0.1;
  current_pf 0.9;
  current_fraction 0.1;
  impedance_pf 1;
  impedance_fraction 0.8;
};
object ZIPload {
  schedule_skew 2918;
  heat_fraction 0.776;
  base_power DISHWASHER*0.7379;
  power_pf 0.97;
  power_fraction 1;
  current_pf 0.97;
  current_fraction 0;
  impedance_pf 0.97;
  impedance_fraction 0;
};
object ZIPload {
  schedule_skew 2918;
  heat_fraction 0.929;
  base_power RANGE*0.5542;
  power_pf 0;
  power_fraction 0;
  current_pf 0;
  current_fraction 0;
  impedance_pf 1;
  impedance_fraction 1;
};
object ZIPload {
  schedule_skew 2918;
  heat_fraction 0.873;
  base_power MICROWAVE*0.5019;
  power_pf 0.97;
  power_fraction 1;
  current_pf 0.97;
  current_fraction 0;
  impedance_pf 0.97;
  impedance_fraction 0;
};

}
object triplex_line {
	phases AS;
	from H0_meter_billing;
	to H0_ev_meter;
	length 10 ft;
	configuration TLCFG;
}

object triplex_meter {
	name H0_ev_meter;
	phases AS;
	nominal_voltage 120;
}

object load {
    name H0_ev;
    parent H0_ev_meter;
};

object triplex_line {
	phases AS;
	from F0_triplex_node_A;
	to H1_meter_billing;
	length 10 ft;
	configuration TLCFG;
}

object triplex_meter {
	name H1_meter_billing;
	phases AS;
	nominal_voltage 120;
	bill_mode UNIFORM;
    bill_day 1;
    monthly_fee 6;
    price ${FIXED_PRICE};
}

object triplex_line {
	phases AS;
	from H1_meter_billing;
	to H1_meter_house;
	length 10 ft;
	configuration TLCFG;
}

object triplex_meter {
	name H1_meter_house;
	groupid F0_meter;
	phases AS;
	nominal_voltage 120;
}

object house {
	name H1;
    groupid VPP_0;
	parent H1_meter_house;
	schedule_skew -1187;
	Rroof 32.513999999999996;
	Rwall 17.416;
	Rfloor 14.029;
	Rdoors 5;
	Rwindows 1.641;
	airchange_per_hour 0.985;
	hvac_power_factor 0.97;
	cooling_system_type ELECTRIC;
	heating_system_type NONE;
	fan_type ONE_SPEED;
	hvac_breaker_rating 200;
	total_thermal_mass_per_floor_area 4.539;
	motor_efficiency AVERAGE;
	motor_model BASIC;
	cooling_COP 3.9050000000000002;
	floor_area 1219.878;
	number_of_doors 2;
	air_temperature 73;
	mass_temperature 73;
    system_mode COOL;
    thermostat_cycle_time 5;
    thermostat_mode OFF;
    cooling_setpoint 10;
	heating_setpoint 1.0;

    object ZIPload {
  schedule_skew -1187;
  heat_fraction 0.928;
  base_power LIGHTS*1.3966;
  power_pf -0.78;
  power_fraction 0.6;
  current_pf 0.42;
  current_fraction 0;
  impedance_pf -0.88;
  impedance_fraction 0.4;
};
object ZIPload {
  schedule_skew -1187;
  heat_fraction 0.88;
  base_power CLOTHESWASHER*0.6925;
  power_pf 0.97;
  power_fraction 1;
  current_pf 0.97;
  current_fraction 0;
  impedance_pf 0.97;
  impedance_fraction 0;
};
object ZIPload {
  schedule_skew -1187;
  heat_fraction 0.945;
  base_power REFRIGERATOR*1.0741;
  power_pf 0.97;
  power_fraction 1;
  current_pf 0.97;
  current_fraction 0;
  impedance_pf 0.97;
  impedance_fraction 0;
};
object ZIPload {
  schedule_skew -1187;
  heat_fraction 0.809;
  base_power DRYER*1.0776;
  power_pf 0.9;
  power_fraction 0.1;
  current_pf 0.9;
  current_fraction 0.1;
  impedance_pf 1;
  impedance_fraction 0.8;
};
object ZIPload {
  schedule_skew -1187;
  heat_fraction 0.943;
  base_power DISHWASHER*0.4371;
  power_pf 0.97;
  power_fraction 1;
  current_pf 0.97;
  current_fraction 0;
  impedance_pf 0.97;
  impedance_fraction 0;
};
object ZIPload {
  schedule_skew -1187;
  heat_fraction 0.645;
  base_power RANGE*1.0368;
  power_pf 0;
  power_fraction 0;
  current_pf 0;
  current_fraction 0;
  impedance_pf 1;
  impedance_fraction 1;
};
object ZIPload {
  schedule_skew -1187;
  heat_fraction 0.85;
  base_power MICROWAVE*0.7235;
  power_pf 0.97;
  power_fraction 1;
  current_pf 0.97;
  current_fraction 0;
  impedance_pf 0.97;
  impedance_fraction 0;
};

}
object triplex_line {
	phases AS;
	from H1_meter_billing;
	to H1_ev_meter;
	length 10 ft;
	configuration TLCFG;
}

object triplex_meter {
	name H1_ev_meter;
	phases AS;
	nominal_voltage 120;
}

object load {
    name H1_ev;
    parent H1_ev_meter;
};

object triplex_line {
	phases AS;
	from F0_triplex_node_A;
	to H2_meter_billing;
	length 10 ft;
	configuration TLCFG;
}

object triplex_meter {
	name H2_meter_billing;
	phases AS;
	nominal_voltage 120;
	bill_mode UNIFORM;
    bill_day 1;
    monthly_fee 6;
    price ${FIXED_PRICE};
}

object triplex_line {
	phases AS;
	from H2_meter_billing;
	to H2_meter_house;
	length 10 ft;
	configuration TLCFG;
}

object triplex_meter {
	name H2_meter_house;
	groupid F0_meter;
	phases AS;
	nominal_voltage 120;
}

object house {
	name H2;
    groupid VPP_0;
	parent H2_meter_house;
	schedule_skew -708;
	Rroof 22.534;
	Rwall 13.63;
	Rfloor 9.821;
	Rdoors 3;
	Rwindows 0.812;
	airchange_per_hour 1.167;
	hvac_power_factor 0.97;
	cooling_system_type ELECTRIC;
	heating_system_type NONE;
	fan_type ONE_SPEED;
	hvac_breaker_rating 200;
	total_thermal_mass_per_floor_area 5.131;
	motor_efficiency AVERAGE;
	motor_model BASIC;
	cooling_COP 3.657;
	floor_area 935.646;
	number_of_doors 1;
	air_temperature 72;
	mass_temperature 72;
    system_mode COOL;
    thermostat_cycle_time 5;
    thermostat_mode OFF;
    cooling_setpoint 10;
	heating_setpoint 1.0;

    object ZIPload {
  schedule_skew -708;
  heat_fraction 0.738;
  base_power LIGHTS*2.0005;
  power_pf -0.78;
  power_fraction 0.6;
  current_pf 0.42;
  current_fraction 0;
  impedance_pf -0.88;
  impedance_fraction 0.4;
};
object ZIPload {
  schedule_skew -708;
  heat_fraction 0.912;
  base_power CLOTHESWASHER*0.7509;
  power_pf 0.97;
  power_fraction 1;
  current_pf 0.97;
  current_fraction 0;
  impedance_pf 0.97;
  impedance_fraction 0;
};
object ZIPload {
  schedule_skew -708;
  heat_fraction 0.68;
  base_power REFRIGERATOR*0.5147;
  power_pf 0.97;
  power_fraction 1;
  current_pf 0.97;
  current_fraction 0;
  impedance_pf 0.97;
  impedance_fraction 0;
};
object ZIPload {
  schedule_skew -708;
  heat_fraction 0.923;
  base_power DRYER*0.8724;
  power_pf 0.9;
  power_fraction 0.1;
  current_pf 0.9;
  current_fraction 0.1;
  impedance_pf 1;
  impedance_fraction 0.8;
};
object ZIPload {
  schedule_skew -708;
  heat_fraction 0.902;
  base_power RANGE*0.8541;
  power_pf 0;
  power_fraction 0;
  current_pf 0;
  current_fraction 0;
  impedance_pf 1;
  impedance_fraction 1;
};
object ZIPload {
  schedule_skew -708;
  heat_fraction 0.923;
  base_power MICROWAVE*0.9953;
  power_pf 0.97;
  power_fraction 1;
  current_pf 0.97;
  current_fraction 0;
  impedance_pf 0.97;
  impedance_fraction 0;
};

}
object triplex_line {
	phases AS;
	from H2_meter_billing;
	to H2_ev_meter;
	length 10 ft;
	configuration TLCFG;
}

object triplex_meter {
	name H2_ev_meter;
	phases AS;
	nominal_voltage 120;
}

object load {
    name H2_ev;
    parent H2_ev_meter;
};

object triplex_line {
	phases AS;
	from F0_triplex_node_A;
	to H3_meter_billing;
	length 10 ft;
	configuration TLCFG;
}

object triplex_meter {
	name H3_meter_billing;
	phases AS;
	nominal_voltage 120;
	bill_mode UNIFORM;
    bill_day 1;
    monthly_fee 6;
    price ${FIXED_PRICE};
}

object triplex_line {
	phases AS;
	from H3_meter_billing;
	to H3_meter_house;
	length 10 ft;
	configuration TLCFG;
}

object triplex_meter {
	name H3_meter_house;
	groupid F0_meter;
	phases AS;
	nominal_voltage 120;
}

object house {
	name H3;
    groupid VPP_0;
	parent H3_meter_house;
	schedule_skew -1172;
	Rroof 30.894;
	Rwall 18.656;
	Rfloor 11.169;
	Rdoors 5;
	Rwindows 1.581;
	airchange_per_hour 0.905;
	hvac_power_factor 0.97;
	cooling_system_type ELECTRIC;
	heating_system_type NONE;
	fan_type ONE_SPEED;
	hvac_breaker_rating 200;
	total_thermal_mass_per_floor_area 4.138999999999999;
	motor_efficiency AVERAGE;
	motor_model BASIC;
	cooling_COP 3.955;
	floor_area 1233.2479999999998;
	number_of_doors 2;
	air_temperature 74;
	mass_temperature 74;
    system_mode COOL;
    thermostat_cycle_time 5;
    thermostat_mode OFF;
    cooling_setpoint 10;
	heating_setpoint 1.0;

    object ZIPload {
  schedule_skew -1172;
  heat_fraction 0.928;
  base_power LIGHTS*1.3966;
  power_pf -0.78;
  power_fraction 0.6;
  current_pf 0.42;
  current_fraction 0;
  impedance_pf -0.88;
  impedance_fraction 0.4;
};
object ZIPload {
  schedule_skew -1172;
  heat_fraction 0.88;
  base_power CLOTHESWASHER*0.6925;
  power_pf 0.97;
  power_fraction 1;
  current_pf 0.97;
  current_fraction 0;
  impedance_pf 0.97;
  impedance_fraction 0;
};
object ZIPload {
  schedule_skew -1172;
  heat_fraction 0.945;
  base_power REFRIGERATOR*1.0741;
  power_pf 0.97;
  power_fraction 1;
  current_pf 0.97;
  current_fraction 0;
  impedance_pf 0.97;
  impedance_fraction 0;
};
object ZIPload {
  schedule_skew -1172;
  heat_fraction 0.809;
  base_power DRYER*1.0776;
  power_pf 0.9;
  power_fraction 0.1;
  current_pf 0.9;
  current_fraction 0.1;
  impedance_pf 1;
  impedance_fraction 0.8;
};
object ZIPload {
  schedule_skew -1172;
  heat_fraction 0.943;
  base_power DISHWASHER*0.4371;
  power_pf 0.97;
  power_fraction 1;
  current_pf 0.97;
  current_fraction 0;
  impedance_pf 0.97;
  impedance_fraction 0;
};
object ZIPload {
  schedule_skew -1172;
  heat_fraction 0.645;
  base_power RANGE*1.0368;
  power_pf 0;
  power_fraction 0;
  current_pf 0;
  current_fraction 0;
  impedance_pf 1;
  impedance_fraction 1;
};
object ZIPload {
  schedule_skew -1172;
  heat_fraction 0.85;
  base_power MICROWAVE*0.7235;
  power_pf 0.97;
  power_fraction 1;
  current_pf 0.97;
  current_fraction 0;
  impedance_pf 0.97;
  impedance_fraction 0;
};

}
object triplex_line {
	phases AS;
	from H3_meter_billing;
	to H3_ev_meter;
	length 10 ft;
	configuration TLCFG;
}

object triplex_meter {
	name H3_ev_meter;
	phases AS;
	nominal_voltage 120;
}

object load {
    name H3_ev;
    parent H3_ev_meter;
};

object triplex_line {
	phases AS;
	from F0_triplex_node_A;
	to H4_meter_billing;
	length 10 ft;
	configuration TLCFG;
}

object triplex_meter {
	name H4_meter_billing;
	phases AS;
	nominal_voltage 120;
	bill_mode UNIFORM;
    bill_day 1;
    monthly_fee 6;
    price ${FIXED_PRICE};
}

object triplex_line {
	phases AS;
	from H4_meter_billing;
	to H4_meter_house;
	length 10 ft;
	configuration TLCFG;
}

object triplex_meter {
	name H4_meter_house;
	groupid F0_meter;
	phases AS;
	nominal_voltage 120;
}

object house {
	name H4;
    groupid VPP_0;
	parent H4_meter_house;
	schedule_skew 812;
	Rroof 19.816;
	Rwall 9.111;
	Rfloor 10.991999999999999;
	Rdoors 3;
	Rwindows 1.044;
	airchange_per_hour 1.099;
	hvac_power_factor 0.97;
	cooling_system_type ELECTRIC;
	heating_system_type NONE;
	fan_type ONE_SPEED;
	hvac_breaker_rating 200;
	total_thermal_mass_per_floor_area 3.8489999999999998;
	motor_efficiency AVERAGE;
	motor_model BASIC;
	cooling_COP 3.779;
	floor_area 3854.7879999999996;
	number_of_doors 4;
	air_temperature 73;
	mass_temperature 73;
    system_mode COOL;
    thermostat_cycle_time 5;
    thermostat_mode OFF;
    cooling_setpoint 10;
	heating_setpoint 1.0;

    object ZIPload {
  schedule_skew 812;
  heat_fraction 0.644;
  base_power LIGHTS*1.4117;
  power_pf -0.78;
  power_fraction 0.6;
  current_pf 0.42;
  current_fraction 0;
  impedance_pf -0.88;
  impedance_fraction 0.4;
};
object ZIPload {
  schedule_skew 812;
  heat_fraction 0.882;
  base_power CLOTHESWASHER*1.8224;
  power_pf 0.97;
  power_fraction 1;
  current_pf 0.97;
  current_fraction 0;
  impedance_pf 0.97;
  impedance_fraction 0;
};
object ZIPload {
  schedule_skew 812;
  heat_fraction 0.708;
  base_power REFRIGERATOR*1.2328;
  power_pf 0.97;
  power_fraction 1;
  current_pf 0.97;
  current_fraction 0;
  impedance_pf 0.97;
  impedance_fraction 0;
};
object ZIPload {
  schedule_skew 812;
  heat_fraction 0.817;
  base_power DRYER*1.0649;
  power_pf 0.9;
  power_fraction 0.1;
  current_pf 0.9;
  current_fraction 0.1;
  impedance_pf 1;
  impedance_fraction 0.8;
};
object ZIPload {
  schedule_skew 812;
  heat_fraction 0.661;
  base_power FREEZER*1.4684;
  power_pf 0.97;
  power_fraction 1;
  current_pf 0.97;
  current_fraction 0;
  impedance_pf 0.97;
  impedance_fraction 0;
};
object ZIPload {
  schedule_skew 812;
  heat_fraction 0.932;
  base_power DISHWASHER*1.7185;
  power_pf 0.97;
  power_fraction 1;
  current_pf 0.97;
  current_fraction 0;
  impedance_pf 0.97;
  impedance_fraction 0;
};
object ZIPload {
  schedule_skew 812;
  heat_fraction 0.755;
  base_power RANGE*1.5519;
  power_pf 0;
  power_fraction 0;
  current_pf 0;
  current_fraction 0;
  impedance_pf 1;
  impedance_fraction 1;
};
object ZIPload {
  schedule_skew 812;
  heat_fraction 0.725;
  base_power MICROWAVE*1.0240;
  power_pf 0.97;
  power_fraction 1;
  current_pf 0.97;
  current_fraction 0;
  impedance_pf 0.97;
  impedance_fraction 0;
};

}
object triplex_line {
	phases AS;
	from H4_meter_billing;
	to H4_ev_meter;
	length 10 ft;
	configuration TLCFG;
}

object triplex_meter {
	name H4_ev_meter;
	phases AS;
	nominal_voltage 120;
}

object load {
    name H4_ev;
    parent H4_ev_meter;
};

object triplex_line {
	phases AS;
	from F0_triplex_node_A;
	to H5_meter_billing;
	length 10 ft;
	configuration TLCFG;
}

object triplex_meter {
	name H5_meter_billing;
	phases AS;
	nominal_voltage 120;
	bill_mode UNIFORM;
    bill_day 1;
    monthly_fee 6;
    price ${FIXED_PRICE};
}

object triplex_line {
	phases AS;
	from H5_meter_billing;
	to H5_meter_house;
	length 10 ft;
	configuration TLCFG;
}

object triplex_meter {
	name H5_meter_house;
	groupid F0_meter;
	phases AS;
	nominal_voltage 120;
}

object house {
	name H5;
    groupid VPP_0;
	parent H5_meter_house;
	schedule_skew -716;
	Rroof 21.164;
	Rwall 13.180000000000001;
	Rfloor 10.291;
	Rdoors 3;
	Rwindows 0.912;
	airchange_per_hour 1.167;
	hvac_power_factor 0.97;
	cooling_system_type ELECTRIC;
	heating_system_type NONE;
	fan_type ONE_SPEED;
	hvac_breaker_rating 200;
	total_thermal_mass_per_floor_area 5.0009999999999994;
	motor_efficiency AVERAGE;
	motor_model BASIC;
	cooling_COP 3.587;
	floor_area 951.126;
	number_of_doors 1;
	air_temperature 73;
	mass_temperature 73;
    system_mode COOL;
    thermostat_cycle_time 5;
    thermostat_mode OFF;
    cooling_setpoint 10;
	heating_setpoint 1.0;

    object ZIPload {
  schedule_skew -716;
  heat_fraction 0.738;
  base_power LIGHTS*2.0005;
  power_pf -0.78;
  power_fraction 0.6;
  current_pf 0.42;
  current_fraction 0;
  impedance_pf -0.88;
  impedance_fraction 0.4;
};
object ZIPload {
  schedule_skew -716;
  heat_fraction 0.912;
  base_power CLOTHESWASHER*0.7509;
  power_pf 0.97;
  power_fraction 1;
  current_pf 0.97;
  current_fraction 0;
  impedance_pf 0.97;
  impedance_fraction 0;
};
object ZIPload {
  schedule_skew -716;
  heat_fraction 0.68;
  base_power REFRIGERATOR*0.5147;
  power_pf 0.97;
  power_fraction 1;
  current_pf 0.97;
  current_fraction 0;
  impedance_pf 0.97;
  impedance_fraction 0;
};
object ZIPload {
  schedule_skew -716;
  heat_fraction 0.923;
  base_power DRYER*0.8724;
  power_pf 0.9;
  power_fraction 0.1;
  current_pf 0.9;
  current_fraction 0.1;
  impedance_pf 1;
  impedance_fraction 0.8;
};
object ZIPload {
  schedule_skew -716;
  heat_fraction 0.902;
  base_power RANGE*0.8541;
  power_pf 0;
  power_fraction 0;
  current_pf 0;
  current_fraction 0;
  impedance_pf 1;
  impedance_fraction 1;
};
object ZIPload {
  schedule_skew -716;
  heat_fraction 0.923;
  base_power MICROWAVE*0.9953;
  power_pf 0.97;
  power_fraction 1;
  current_pf 0.97;
  current_fraction 0;
  impedance_pf 0.97;
  impedance_fraction 0;
};

}
object triplex_line {
	phases AS;
	from H5_meter_billing;
	to H5_ev_meter;
	length 10 ft;
	configuration TLCFG;
}

object triplex_meter {
	name H5_ev_meter;
	phases AS;
	nominal_voltage 120;
}

object load {
    name H5_ev;
    parent H5_ev_meter;
};

object triplex_line {
	phases AS;
	from F0_triplex_node_A;
	to H6_meter_billing;
	length 10 ft;
	configuration TLCFG;
}

object triplex_meter {
	name H6_meter_billing;
	phases AS;
	nominal_voltage 120;
	bill_mode UNIFORM;
    bill_day 1;
    monthly_fee 6;
    price ${FIXED_PRICE};
}

object triplex_line {
	phases AS;
	from H6_meter_billing;
	to H6_meter_house;
	length 10 ft;
	configuration TLCFG;
}

object triplex_meter {
	name H6_meter_house;
	groupid F0_meter;
	phases AS;
	nominal_voltage 120;
}

object house {
	name H6;
    groupid VPP_0;
	parent H6_meter_house;
	schedule_skew -566;
	Rroof 34.824;
	Rwall 17.724999999999998;
	Rfloor 17.858;
	Rdoors 5;
	Rwindows 1.1629999999999998;
	airchange_per_hour 1.284;
	hvac_power_factor 0.97;
	cooling_system_type ELECTRIC;
	heating_system_type NONE;
	fan_type ONE_SPEED;
	hvac_breaker_rating 200;
	total_thermal_mass_per_floor_area 3.582;
	motor_efficiency AVERAGE;
	motor_model BASIC;
	cooling_COP 4.06;
	floor_area 737.3620000000001;
	number_of_doors 1;
	air_temperature 73;
	mass_temperature 73;
    system_mode COOL;
    thermostat_cycle_time 5;
    thermostat_mode OFF;
    cooling_setpoint 10;
	heating_setpoint 1.0;

    object ZIPload {
  schedule_skew -566;
  heat_fraction 0.797;
  base_power LIGHTS*0.7614;
  power_pf 0;
  power_fraction 0;
  current_pf 0;
  current_fraction 0;
  impedance_pf 1;
  impedance_fraction 1;
};
object ZIPload {
  schedule_skew -566;
  heat_fraction 0.956;
  base_power CLOTHESWASHER*0.7214;
  power_pf 0.97;
  power_fraction 1;
  current_pf 0.97;
  current_fraction 0;
  impedance_pf 0.97;
  impedance_fraction 0;
};
object ZIPload {
  schedule_skew -566;
  heat_fraction 0.838;
  base_power REFRIGERATOR*0.6400;
  power_pf 0.97;
  power_fraction 1;
  current_pf 0.97;
  current_fraction 0;
  impedance_pf 0.97;
  impedance_fraction 0;
};
object ZIPload {
  schedule_skew -566;
  heat_fraction 0.888;
  base_power DRYER*0.5331;
  power_pf 0.9;
  power_fraction 0.1;
  current_pf 0.9;
  current_fraction 0.1;
  impedance_pf 1;
  impedance_fraction 0.8;
};
object ZIPload {
  schedule_skew -566;
  heat_fraction 0.886;
  base_power DISHWASHER*1.0002;
  power_pf 0.97;
  power_fraction 1;
  current_pf 0.97;
  current_fraction 0;
  impedance_pf 0.97;
  impedance_fraction 0;
};
object ZIPload {
  schedule_skew -566;
  heat_fraction 0.857;
  base_power RANGE*0.5759;
  power_pf 0;
  power_fraction 0;
  current_pf 0;
  current_fraction 0;
  impedance_pf 1;
  impedance_fraction 1;
};
object ZIPload {
  schedule_skew -566;
  heat_fraction 0.8;
  base_power MICROWAVE*0.9763;
  power_pf 0.97;
  power_fraction 1;
  current_pf 0.97;
  current_fraction 0;
  impedance_pf 0.97;
  impedance_fraction 0;
};

}
object triplex_line {
	phases AS;
	from H6_meter_billing;
	to H6_ev_meter;
	length 10 ft;
	configuration TLCFG;
}

object triplex_meter {
	name H6_ev_meter;
	phases AS;
	nominal_voltage 120;
}

object load {
    name H6_ev;
    parent H6_ev_meter;
};

object triplex_line {
	phases AS;
	from F0_triplex_node_A;
	to H7_meter_billing;
	length 10 ft;
	configuration TLCFG;
}

object triplex_meter {
	name H7_meter_billing;
	phases AS;
	nominal_voltage 120;
	bill_mode UNIFORM;
    bill_day 1;
    monthly_fee 6;
    price ${FIXED_PRICE};
}

object triplex_line {
	phases AS;
	from H7_meter_billing;
	to H7_meter_house;
	length 10 ft;
	configuration TLCFG;
}

object triplex_meter {
	name H7_meter_house;
	groupid F0_meter;
	phases AS;
	nominal_voltage 120;
}

object house {
	name H7;
    groupid VPP_0;
	parent H7_meter_house;
	schedule_skew -717;
	Rroof 21.714;
	Rwall 13.450000000000001;
	Rfloor 10.891;
	Rdoors 3;
	Rwindows 0.892;
	airchange_per_hour 1.077;
	hvac_power_factor 0.97;
	cooling_system_type ELECTRIC;
	heating_system_type NONE;
	fan_type ONE_SPEED;
	hvac_breaker_rating 200;
	total_thermal_mass_per_floor_area 5.271;
	motor_efficiency AVERAGE;
	motor_model BASIC;
	cooling_COP 3.5370000000000004;
	floor_area 930.186;
	number_of_doors 1;
	air_temperature 74;
	mass_temperature 74;
    system_mode COOL;
    thermostat_cycle_time 5;
    thermostat_mode OFF;
    cooling_setpoint 10;
	heating_setpoint 1.0;

    object ZIPload {
  schedule_skew -717;
  heat_fraction 0.738;
  base_power LIGHTS*2.0005;
  power_pf -0.78;
  power_fraction 0.6;
  current_pf 0.42;
  current_fraction 0;
  impedance_pf -0.88;
  impedance_fraction 0.4;
};
object ZIPload {
  schedule_skew -717;
  heat_fraction 0.912;
  base_power CLOTHESWASHER*0.7509;
  power_pf 0.97;
  power_fraction 1;
  current_pf 0.97;
  current_fraction 0;
  impedance_pf 0.97;
  impedance_fraction 0;
};
object ZIPload {
  schedule_skew -717;
  heat_fraction 0.68;
  base_power REFRIGERATOR*0.5147;
  power_pf 0.97;
  power_fraction 1;
  current_pf 0.97;
  current_fraction 0;
  impedance_pf 0.97;
  impedance_fraction 0;
};
object ZIPload {
  schedule_skew -717;
  heat_fraction 0.923;
  base_power DRYER*0.8724;
  power_pf 0.9;
  power_fraction 0.1;
  current_pf 0.9;
  current_fraction 0.1;
  impedance_pf 1;
  impedance_fraction 0.8;
};
object ZIPload {
  schedule_skew -717;
  heat_fraction 0.902;
  base_power RANGE*0.8541;
  power_pf 0;
  power_fraction 0;
  current_pf 0;
  current_fraction 0;
  impedance_pf 1;
  impedance_fraction 1;
};
object ZIPload {
  schedule_skew -717;
  heat_fraction 0.923;
  base_power MICROWAVE*0.9953;
  power_pf 0.97;
  power_fraction 1;
  current_pf 0.97;
  current_fraction 0;
  impedance_pf 0.97;
  impedance_fraction 0;
};

}
object triplex_line {
	phases AS;
	from H7_meter_billing;
	to H7_ev_meter;
	length 10 ft;
	configuration TLCFG;
}

object triplex_meter {
	name H7_ev_meter;
	phases AS;
	nominal_voltage 120;
}

object load {
    name H7_ev;
    parent H7_ev_meter;
};

object triplex_line {
	phases AS;
	from F0_triplex_node_A;
	to H8_meter_billing;
	length 10 ft;
	configuration TLCFG;
}

object triplex_meter {
	name H8_meter_billing;
	phases AS;
	nominal_voltage 120;
	bill_mode UNIFORM;
    bill_day 1;
    monthly_fee 6;
    price ${FIXED_PRICE};
}

object triplex_line {
	phases AS;
	from H8_meter_billing;
	to H8_meter_house;
	length 10 ft;
	configuration TLCFG;
}

object triplex_meter {
	name H8_meter_house;
	groupid F0_meter;
	phases AS;
	nominal_voltage 120;
}

object house {
	name H8;
    groupid VPP_0;
	parent H8_meter_house;
	schedule_skew 2936;
	Rroof 30.65;
	Rwall 18.654999999999998;
	Rfloor 15.72;
	Rdoors 5;
	Rwindows 2.0810000000000004;
	airchange_per_hour 1.167;
	hvac_power_factor 0.97;
	cooling_system_type ELECTRIC;
	heating_system_type NONE;
	fan_type ONE_SPEED;
	hvac_breaker_rating 200;
	total_thermal_mass_per_floor_area 3.3760000000000003;
	motor_efficiency AVERAGE;
	motor_model BASIC;
	cooling_COP 3.9910000000000005;
	floor_area 1407.5240000000001;
	number_of_doors 2;
	air_temperature 72;
	mass_temperature 72;
    system_mode COOL;
    thermostat_cycle_time 5;
    thermostat_mode OFF;
    cooling_setpoint 10;
	heating_setpoint 1.0;

    object ZIPload {
  schedule_skew 2936;
  heat_fraction 0.73;
  base_power LIGHTS*1.8146;
  power_pf -0.78;
  power_fraction 0.6;
  current_pf 0.42;
  current_fraction 0;
  impedance_pf -0.88;
  impedance_fraction 0.4;
};
object ZIPload {
  schedule_skew 2936;
  heat_fraction 0.66;
  base_power CLOTHESWASHER*0.5212;
  power_pf 0.97;
  power_fraction 1;
  current_pf 0.97;
  current_fraction 0;
  impedance_pf 0.97;
  impedance_fraction 0;
};
object ZIPload {
  schedule_skew 2936;
  heat_fraction 0.723;
  base_power REFRIGERATOR*1.1318;
  power_pf 0.97;
  power_fraction 1;
  current_pf 0.97;
  current_fraction 0;
  impedance_pf 0.97;
  impedance_fraction 0;
};
object ZIPload {
  schedule_skew 2936;
  heat_fraction 0.851;
  base_power DRYER*1.2189;
  power_pf 0.9;
  power_fraction 0.1;
  current_pf 0.9;
  current_fraction 0.1;
  impedance_pf 1;
  impedance_fraction 0.8;
};
object ZIPload {
  schedule_skew 2936;
  heat_fraction 0.776;
  base_power DISHWASHER*0.7379;
  power_pf 0.97;
  power_fraction 1;
  current_pf 0.97;
  current_fraction 0;
  impedance_pf 0.97;
  impedance_fraction 0;
};
object ZIPload {