#set double_format=%+.12lg
#set profiler=1
#set randomseed=10
#set relax_naming_rules=1
#set savefile=test.xml
#set minimum_timestep=1

clock {
	timezone PST+8PDT;
	starttime '2013-07-01 00:00:00';
	stoptime '2013-07-09 00:00:00';
}

module climate;
module market;
module powerflow {
	solver_method FBS;
	NR_iteration_limit 100;
}
module residential {
	implicit_enduses NONE;
}
module tape;
module generators;

// only the heating setpoint schedule is used here
#include "${SCHED_PATH}/water_and_setpoint_schedule_v3.glm";
#include "${SCHED_PATH}/appliance_schedules.glm";

// summer
#define FIXED_PRICE=0.127
// winter
//#define FIXED_PRICE=0.088

object climate {
  name localWeather;
//     tmyfile "../../support/weather/AZ-Tucson_International_Ap.tmy3";
  interpolate QUADRATIC;
	latitude 32.133;
	longitude -111.95;
  tz_meridian -105.0;
}


class player {
      double value;
}

object player {
    name PHASE_A;
    file "phase_A.player";
    loop 1;
}
object player {
    name PHASE_B;
    file "phase_B.player";
    loop 1;
}
object player {
    name PHASE_C;
    file "phase_C.player";
    loop 1;
}

object transformer_configuration {
	name substation_config;
	connect_type WYE_WYE;
	install_type PADMOUNT;
	power_rating 450;
	powerA_rating 150 kVA;
	powerB_rating 150;
	powerC_rating 150;
	primary_voltage 133000;
	secondary_voltage 7200;
	impedance +0.0015+0.00675j;
}

object transformer_configuration {
	name default_transformer_A;
	connect_type SINGLE_PHASE_CENTER_TAPPED;
	install_type PADMOUNT;
	power_rating 150;
	powerA_rating 150 kVA;
	primary_voltage 7200;
	secondary_voltage 120;
	impedance +0.015+0.0675j;
}

object transformer_configuration {
	name default_transformer_B;
	connect_type SINGLE_PHASE_CENTER_TAPPED;
	install_type PADMOUNT;
	power_rating 150;
	powerB_rating 150;
	primary_voltage 7200;
	secondary_voltage 120;
	impedance +0.015+0.0675j;
}

object transformer_configuration {
	name default_transformer_C;
	connect_type SINGLE_PHASE_CENTER_TAPPED;
	install_type PADMOUNT;
	power_rating 150;
	powerC_rating 150;
	primary_voltage 7200;
	secondary_voltage 120;
	impedance +0.015+0.0675j;
}

// overhead line configuration
object line_configuration:601 {
  spacing line_spacing:500601;
  conductor_N overhead_line_conductor:6020;
  conductor_C overhead_line_conductor:6010;
  conductor_B overhead_line_conductor:6010;
  conductor_A overhead_line_conductor:6010;
}

object line_spacing:500601 {
  distance_CN 5.0;
  distance_AN 4.272002;
  distance_BN 5.656854;
  distance_BC 7.0;
  distance_AC 4.5;
  distance_AB 2.5;
}

object overhead_line_conductor:6010 {
  resistance 0.185900;
  geometric_mean_radius 0.031300;
}

object overhead_line_conductor:6020 {
  resistance 0.592000;
  geometric_mean_radius 0.00814;
}


object triplex_line_conductor {
	name Name_1_0_AA_triplex;
	resistance 0.57;
	geometric_mean_radius 0.011;
}

object triplex_line_configuration {
	name TLCFG;
	conductor_1 Name_1_0_AA_triplex;
	conductor_2 Name_1_0_AA_triplex;
	conductor_N Name_1_0_AA_triplex;
	insulation_thickness 0.08;
	diameter 0.368;
}



// substation for the MATPOWER/PYPOWER interface
object substation {
	name network_node;
	phases ABCN;
	nominal_voltage 133000;
	positive_sequence_voltage 133000;
	bustype SWING;
    base_power 12MVA;
    power_convergence_value 100VA;
}

// substation transformer
object transformer {
	name sub_transformer;
	groupid Network_Trans;
	phases ABCN;
	from network_node;
	to transformer_meter;
	configuration substation_config;
}

// transformer meter
object meter {
	name transformer_meter;
	phases ABCN;
	nominal_voltage 7200;
}

// unresponsive load
object load {
     name unresp_load;
     nominal_voltage 7200;
     phases ABCN;
     parent transformer_meter;
	 
     base_power_A PHASE_A.value*0.1;
     base_power_B PHASE_B.value*0.1;
     base_power_C PHASE_C.value*0.1;
	 
	 power_pf_A 0.9;
	 power_pf_B 0.9;
	 power_pf_C 0.9;
	 
	 power_fraction_A 1.0;
	 power_fraction_B 1.0;
	 power_fraction_C 1.0;
	 
	 current_fraction_A 0.0;
	 current_fraction_B 0.0;
	 current_fraction_C 0.0;
	 
	 impedance_fraction_A 0.0;
	 impedance_fraction_B 0.0;
	 impedance_fraction_C 0.0;
}

///////////////////////////////
///////code generated by python
///////////////////////////////

object transformer {
	name F0_center_tap_transformer_A;
	phases SA;
	from transformer_meter;
	to F0_triplex_node_A;
	configuration default_transformer_A;
}

object triplex_meter {
	name F0_triplex_node_A;
	phases SA;
	nominal_voltage 120;
    groupid VPP_Meter;
}


object triplex_line {
	phases AS;
	from F0_triplex_node_A;
	to H0_meter_billing;
	length 10 ft;
	configuration TLCFG;
}

object triplex_meter {
	name H0_meter_billing;
	phases AS;
	nominal_voltage 120;
	bill_mode UNIFORM;
    bill_day 1;
    monthly_fee 6;
    price ${FIXED_PRICE};
}

object triplex_line {
	phases AS;
	from H0_meter_billing;
	to H0_meter_house;
	length 10 ft;
	configuration TLCFG;
}

object triplex_meter {
	name H0_meter_house;
	groupid F0_meter;
	phases AS;
	nominal_voltage 120;
}

object house {
	name H0;
    groupid VPP_0;
	parent H0_meter_house;
	schedule_skew 348;
	Rroof 30.509999999999998;
	Rwall 19.98;
	Rfloor 12.229;
	Rdoors 5;
	Rwindows 1.69;
	airchange_per_hour 0.732;
	hvac_power_factor 0.97;
	cooling_system_type ELECTRIC;
	heating_system_type NONE;
	fan_type ONE_SPEED;
	hvac_breaker_rating 200;
	total_thermal_mass_per_floor_area 3.129;
	motor_efficiency AVERAGE;
	motor_model BASIC;
	cooling_COP 3.7340000000000004;
	floor_area 826.0389999999999;
	number_of_doors 1;
	air_temperature 73;
	mass_temperature 73;
    system_mode COOL;
    thermostat_cycle_time 5;
    thermostat_mode OFF;
    cooling_setpoint 10;
	heating_setpoint 1.0;

    object ZIPload {
  schedule_skew 348;
  heat_fraction 0.71;
  base_power LIGHTS*1.3151;
  power_pf -0.78;
  power_fraction 0.6;
  current_pf 0.42;
  current_fraction 0;
  impedance_pf -0.88;
  impedance_fraction 0.4;
};
object ZIPload {
  schedule_skew 348;
  heat_fraction 0.67;
  base_power CLOTHESWASHER*0.8809;
  power_pf 0.97;
  power_fraction 1;
  current_pf 0.97;
  current_fraction 0;
  impedance_pf 0.97;
  impedance_fraction 0;
};
object ZIPload {
  schedule_skew 348;
  heat_fraction 0.656;
  base_power REFRIGERATOR*0.7265;
  power_pf 0.97;
  power_fraction 1;
  current_pf 0.97;
  current_fraction 0;
  impedance_pf 0.97;
  impedance_fraction 0;
};
object ZIPload {
  schedule_skew 348;
  heat_fraction 0.912;
  base_power DRYER*0.4669;
  power_pf 0.9;
  power_fraction 0.1;
  current_pf 0.9;
  current_fraction 0.1;
  impedance_pf 1;
  impedance_fraction 0.8;
};
object ZIPload {
  schedule_skew 348;
  heat_fraction 0.829;
  base_power RANGE*0.4825;
  power_pf 0;
  power_fraction 0;
  current_pf 0;
  current_fraction 0;
  impedance_pf 1;
  impedance_fraction 1;
};
object ZIPload {
  schedule_skew 348;
  heat_fraction 0.865;
  base_power MICROWAVE*0.3953;
  power_pf 0.97;
  power_fraction 1;
  current_pf 0.97;
  current_fraction 0;
  impedance_pf 0.97;
  impedance_fraction 0;
};

}
object triplex_line {
	phases AS;
	from H0_meter_billing;
	to H0_ev_meter;
	length 10 ft;
	configuration TLCFG;
}

object triplex_meter {
	name H0_ev_meter;
	phases AS;
	nominal_voltage 120;
}

object load {
    name H0_ev;
    parent H0_ev_meter;
};

object triplex_line {
	phases AS;
	from F0_triplex_node_A;
	to H1_meter_billing;
	length 10 ft;
	configuration TLCFG;
}

object triplex_meter {
	name H1_meter_billing;
	phases AS;
	nominal_voltage 120;
	bill_mode UNIFORM;
    bill_day 1;
    monthly_fee 6;
    price ${FIXED_PRICE};
}

object triplex_line {
	phases AS;
	from H1_meter_billing;
	to H1_meter_house;
	length 10 ft;
	configuration TLCFG;
}

object triplex_meter {
	name H1_meter_house;
	groupid F0_meter;
	phases AS;
	nominal_voltage 120;
}

object house {
	name H1;
    groupid VPP_0;
	parent H1_meter_house;
	schedule_skew -485;
	Rroof 17.516;
	Rwall 5.543;
	Rfloor 4.524;
	Rdoors 3;
	Rwindows 1.5270000000000001;
	airchange_per_hour 1.387;
	hvac_power_factor 0.97;
	cooling_system_type ELECTRIC;
	heating_system_type NONE;
	fan_type ONE_SPEED;
	hvac_breaker_rating 200;
	total_thermal_mass_per_floor_area 3.379;
	motor_efficiency AVERAGE;
	motor_model BASIC;
	cooling_COP 2.402;
	floor_area 847.503;
	number_of_doors 1;
	air_temperature 73;
	mass_temperature 73;
    system_mode COOL;
    thermostat_cycle_time 5;
    thermostat_mode OFF;
    cooling_setpoint 10;
	heating_setpoint 1.0;

    object ZIPload {
  schedule_skew -485;
  heat_fraction 0.86;
  base_power LIGHTS*0.8293;
  power_pf -0.78;
  power_fraction 0.6;
  current_pf 0.42;
  current_fraction 0;
  impedance_pf -0.88;
  impedance_fraction 0.4;
};
object ZIPload {
  schedule_skew -485;
  heat_fraction 0.687;
  base_power CLOTHESWASHER*0.9734;
  power_pf 0.97;
  power_fraction 1;
  current_pf 0.97;
  current_fraction 0;
  impedance_pf 0.97;
  impedance_fraction 0;
};
object ZIPload {
  schedule_skew -485;
  heat_fraction 0.888;
  base_power REFRIGERATOR*0.7271;
  power_pf 0.97;
  power_fraction 1;
  current_pf 0.97;
  current_fraction 0;
  impedance_pf 0.97;
  impedance_fraction 0;
};
object ZIPload {
  schedule_skew -485;
  heat_fraction 0.656;
  base_power DRYER*0.4851;
  power_pf 0.9;
  power_fraction 0.1;
  current_pf 0.9;
  current_fraction 0.1;
  impedance_pf 1;
  impedance_fraction 0.8;
};
object ZIPload {
  schedule_skew -485;
  heat_fraction 0.753;
  base_power DISHWASHER*0.6316;
  power_pf 0.97;
  power_fraction 1;
  current_pf 0.97;
  current_fraction 0;
  impedance_pf 0.97;
  impedance_fraction 0;
};
object ZIPload {
  schedule_skew -485;
  heat_fraction 0.71;
  base_power RANGE*0.8467;
  power_pf 0;
  power_fraction 0;
  current_pf 0;
  current_fraction 0;
  impedance_pf 1;
  impedance_fraction 1;
};
object ZIPload {
  schedule_skew -485;
  heat_fraction 0.868;
  base_power MICROWAVE*0.5315;
  power_pf 0.97;
  power_fraction 1;
  current_pf 0.97;
  current_fraction 0;
  impedance_pf 0.97;
  impedance_fraction 0;
};

}
object triplex_line {
	phases AS;
	from H1_meter_billing;
	to H1_ev_meter;
	length 10 ft;
	configuration TLCFG;
}

object triplex_meter {
	name H1_ev_meter;
	phases AS;
	nominal_voltage 120;
}

object load {
    name H1_ev;
    parent H1_ev_meter;
};

object triplex_line {
	phases AS;
	from F0_triplex_node_A;
	to H2_meter_billing;
	length 10 ft;
	configuration TLCFG;
}

object triplex_meter {
	name H2_meter_billing;
	phases AS;
	nominal_voltage 120;
	bill_mode UNIFORM;
    bill_day 1;
    monthly_fee 6;
    price ${FIXED_PRICE};
}

object triplex_line {
	phases AS;
	from H2_meter_billing;
	to H2_meter_house;
	length 10 ft;
	configuration TLCFG;
}

object triplex_meter {
	name H2_meter_house;
	groupid F0_meter;
	phases AS;
	nominal_voltage 120;
}

object house {
	name H2;
    groupid VPP_0;
	parent H2_meter_house;
	schedule_skew 2928;
	Rroof 30.71;
	Rwall 18.534999999999997;
	Rfloor 15.000000000000002;
	Rdoors 5;
	Rwindows 2.1310000000000002;
	airchange_per_hour 1.3070000000000002;
	hvac_power_factor 0.97;
	cooling_system_type ELECTRIC;
	heating_system_type NONE;
	fan_type ONE_SPEED;
	hvac_breaker_rating 200;
	total_thermal_mass_per_floor_area 3.4160000000000004;
	motor_efficiency AVERAGE;
	motor_model BASIC;
	cooling_COP 4.101;
	floor_area 1441.7740000000001;
	number_of_doors 2;
	air_temperature 73;
	mass_temperature 73;
    system_mode COOL;
    thermostat_cycle_time 5;
    thermostat_mode OFF;
    cooling_setpoint 10;
	heating_setpoint 1.0;

    object ZIPload {
  schedule_skew 2928;
  heat_fraction 0.73;
  base_power LIGHTS*1.8146;
  power_pf -0.78;
  power_fraction 0.6;
  current_pf 0.42;
  current_fraction 0;
  impedance_pf -0.88;
  impedance_fraction 0.4;
};
object ZIPload {
  schedule_skew 2928;
  heat_fraction 0.66;
  base_power CLOTHESWASHER*0.5212;
  power_pf 0.97;
  power_fraction 1;
  current_pf 0.97;
  current_fraction 0;
  impedance_pf 0.97;
  impedance_fraction 0;
};
object ZIPload {
  schedule_skew 2928;
  heat_fraction 0.723;
  base_power REFRIGERATOR*1.1318;
  power_pf 0.97;
  power_fraction 1;
  current_pf 0.97;
  current_fraction 0;
  impedance_pf 0.97;
  impedance_fraction 0;
};
object ZIPload {
  schedule_skew 2928;
  heat_fraction 0.851;
  base_power DRYER*1.2189;
  power_pf 0.9;
  power_fraction 0.1;
  current_pf 0.9;
  current_fraction 0.1;
  impedance_pf 1;
  impedance_fraction 0.8;
};
object ZIPload {
  schedule_skew 2928;
  heat_fraction 0.776;
  base_power DISHWASHER*0.7379;
  power_pf 0.97;
  power_fraction 1;
  current_pf 0.97;
  current_fraction 0;
  impedance_pf 0.97;
  impedance_fraction 0;
};
object ZIPload {
  schedule_skew 2928;
  heat_fraction 0.929;
  base_power RANGE*0.5542;
  power_pf 0;
  power_fraction 0;
  current_pf 0;
  current_fraction 0;
  impedance_pf 1;
  impedance_fraction 1;
};
object ZIPload {
  schedule_skew 2928;
  heat_fraction 0.873;
  base_power MICROWAVE*0.5019;
  power_pf 0.97;
  power_fraction 1;
  current_pf 0.97;
  current_fraction 0;
  impedance_pf 0.97;
  impedance_fraction 0;
};

}
object triplex_line {
	phases AS;
	from H2_meter_billing;
	to H2_ev_meter;
	length 10 ft;
	configuration TLCFG;
}

object triplex_meter {
	name H2_ev_meter;
	phases AS;
	nominal_voltage 120;
}

object load {
    name H2_ev;
    parent H2_ev_meter;
};

object triplex_line {
	phases AS;
	from F0_triplex_node_A;
	to H3_meter_billing;
	length 10 ft;
	configuration TLCFG;
}

object triplex_meter {
	name H3_meter_billing;
	phases AS;
	nominal_voltage 120;
	bill_mode UNIFORM;
    bill_day 1;
    monthly_fee 6;
    price ${FIXED_PRICE};
}

object triplex_line {
	phases AS;
	from H3_meter_billing;
	to H3_meter_house;
	length 10 ft;
	configuration TLCFG;
}

object triplex_meter {
	name H3_meter_house;
	groupid F0_meter;
	phases AS;
	nominal_voltage 120;
}

object house {
	name H3;
    groupid VPP_0;
	parent H3_meter_house;
	schedule_skew 365;
	Rroof 29.069999999999997;
	Rwall 18.93;
	Rfloor 13.048999999999998;
	Rdoors 5;
	Rwindows 1.71;
	airchange_per_hour 0.8420000000000001;
	hvac_power_factor 0.97;
	cooling_system_type ELECTRIC;
	heating_system_type NONE;
	fan_type ONE_SPEED;
	hvac_breaker_rating 200;
	total_thermal_mass_per_floor_area 3.079;
	motor_efficiency AVERAGE;
	motor_model BASIC;
	cooling_COP 3.854;
	floor_area 852.7489999999999;
	number_of_doors 1;
	air_temperature 73;
	mass_temperature 73;
    system_mode COOL;
    thermostat_cycle_time 5;
    thermostat_mode OFF;
    cooling_setpoint 10;
	heating_setpoint 1.0;

    object ZIPload {
  schedule_skew 365;
  heat_fraction 0.71;
  base_power LIGHTS*1.3151;
  power_pf -0.78;
  power_fraction 0.6;
  current_pf 0.42;
  current_fraction 0;
  impedance_pf -0.88;
  impedance_fraction 0.4;
};
object ZIPload {
  schedule_skew 365;
  heat_fraction 0.67;
  base_power CLOTHESWASHER*0.8809;
  power_pf 0.97;
  power_fraction 1;
  current_pf 0.97;
  current_fraction 0;
  impedance_pf 0.97;
  impedance_fraction 0;
};
object ZIPload {
  schedule_skew 365;
  heat_fraction 0.656;
  base_power REFRIGERATOR*0.7265;
  power_pf 0.97;
  power_fraction 1;
  current_pf 0.97;
  current_fraction 0;
  impedance_pf 0.97;
  impedance_fraction 0;
};
object ZIPload {
  schedule_skew 365;
  heat_fraction 0.912;
  base_power DRYER*0.4669;
  power_pf 0.9;
  power_fraction 0.1;
  current_pf 0.9;
  current_fraction 0.1;
  impedance_pf 1;
  impedance_fraction 0.8;
};
object ZIPload {
  schedule_skew 365;
  heat_fraction 0.829;
  base_power RANGE*0.4825;
  power_pf 0;
  power_fraction 0;
  current_pf 0;
  current_fraction 0;
  impedance_pf 1;
  impedance_fraction 1;
};
object ZIPload {
  schedule_skew 365;
  heat_fraction 0.865;
  base_power MICROWAVE*0.3953;
  power_pf 0.97;
  power_fraction 1;
  current_pf 0.97;
  current_fraction 0;
  impedance_pf 0.97;
  impedance_fraction 0;
};

}
object triplex_line {
	phases AS;
	from H3_meter_billing;
	to H3_ev_meter;
	length 10 ft;
	configuration TLCFG;
}

object triplex_meter {
	name H3_ev_meter;
	phases AS;
	nominal_voltage 120;
}

object load {
    name H3_ev;
    parent H3_ev_meter;
};

object triplex_line {
	phases AS;
	from F0_triplex_node_A;
	to H4_meter_billing;
	length 10 ft;
	configuration TLCFG;
}

object triplex_meter {
	name H4_meter_billing;
	phases AS;
	nominal_voltage 120;
	bill_mode UNIFORM;
    bill_day 1;
    monthly_fee 6;
    price ${FIXED_PRICE};
}

object triplex_line {
	phases AS;
	from H4_meter_billing;
	to H4_meter_house;
	length 10 ft;
	configuration TLCFG;
}

object triplex_meter {
	name H4_meter_house;
	groupid F0_meter;
	phases AS;
	nominal_voltage 120;
}

object house {
	name H4;
    groupid VPP_0;
	parent H4_meter_house;
	schedule_skew -1049;
	Rroof 23.014000000000003;
	Rwall 14.208;
	Rfloor 11.808;
	Rdoors 3;
	Rwindows 1.178;
	airchange_per_hour 0.9569999999999999;
	hvac_power_factor 0.97;
	cooling_system_type ELECTRIC;
	heating_system_type NONE;
	fan_type ONE_SPEED;
	hvac_breaker_rating 200;
	total_thermal_mass_per_floor_area 3.13;
	motor_efficiency AVERAGE;
	motor_model BASIC;
	cooling_COP 3.2070000000000003;
	floor_area 617.135;
	number_of_doors 1;
	air_temperature 72;
	mass_temperature 72;
    system_mode COOL;
    thermostat_cycle_time 5;
    thermostat_mode OFF;
    cooling_setpoint 10;
	heating_setpoint 1.0;

    object ZIPload {
  schedule_skew -1049;
  heat_fraction 0.943;
  base_power LIGHTS*1.2858;
  power_pf 0;
  power_fraction 0;
  current_pf 0;
  current_fraction 0;
  impedance_pf 1;
  impedance_fraction 1;
};
object ZIPload {
  schedule_skew -1049;
  heat_fraction 0.796;
  base_power CLOTHESWASHER*0.5579;
  power_pf 0.97;
  power_fraction 1;
  current_pf 0.97;
  current_fraction 0;
  impedance_pf 0.97;
  impedance_fraction 0;
};
object ZIPload {
  schedule_skew -1049;
  heat_fraction 0.873;
  base_power REFRIGERATOR*0.6902;
  power_pf 0.97;
  power_fraction 1;
  current_pf 0.97;
  current_fraction 0;
  impedance_pf 0.97;
  impedance_fraction 0;
};
object ZIPload {
  schedule_skew -1049;
  heat_fraction 0.869;
  base_power DRYER*0.8551;
  power_pf 0.9;
  power_fraction 0.1;
  current_pf 0.9;
  current_fraction 0.1;
  impedance_pf 1;
  impedance_fraction 0.8;
};
object ZIPload {
  schedule_skew -1049;
  heat_fraction 0.931;
  base_power RANGE*0.5889;
  power_pf 0;
  power_fraction 0;
  current_pf 0;
  current_fraction 0;
  impedance_pf 1;
  impedance_fraction 1;
};
object ZIPload {
  schedule_skew -1049;
  heat_fraction 0.695;
  base_power MICROWAVE*0.5648;
  power_pf 0.97;
  power_fraction 1;
  current_pf 0.97;
  current_fraction 0;
  impedance_pf 0.97;
  impedance_fraction 0;
};

}
object triplex_line {
	phases AS;
	from H4_meter_billing;
	to H4_ev_meter;
	length 10 ft;
	configuration TLCFG;
}

object triplex_meter {
	name H4_ev_meter;
	phases AS;
	nominal_voltage 120;
}

object load {
    name H4_ev;
    parent H4_ev_meter;
};

object triplex_line {
	phases AS;
	from F0_triplex_node_A;
	to H5_meter_billing;
	length 10 ft;
	configuration TLCFG;
}

object triplex_meter {
	name H5_meter_billing;
	phases AS;
	nominal_voltage 120;
	bill_mode UNIFORM;
    bill_day 1;
    monthly_fee 6;
    price ${FIXED_PRICE};
}

object triplex_line {
	phases AS;
	from H5_meter_billing;
	to H5_meter_house;
	length 10 ft;
	configuration TLCFG;
}

object triplex_meter {
	name H5_meter_house;
	groupid F0_meter;
	phases AS;
	nominal_voltage 120;
}

object house {
	name H5;
    groupid VPP_0;
	parent H5_meter_house;
	schedule_skew 354;
	Rroof 30.27;
	Rwall 19.18;
	Rfloor 12.539;
	Rdoors 5;
	Rwindows 1.5999999999999999;
	airchange_per_hour 0.722;
	hvac_power_factor 0.97;
	cooling_system_type ELECTRIC;
	heating_system_type NONE;
	fan_type ONE_SPEED;
	hvac_breaker_rating 200;
	total_thermal_mass_per_floor_area 3.039;
	motor_efficiency AVERAGE;
	motor_model BASIC;
	cooling_COP 3.794;
	floor_area 853.5289999999999;
	number_of_doors 1;
	air_temperature 74;
	mass_temperature 74;
    system_mode COOL;
    thermostat_cycle_time 5;
    thermostat_mode OFF;
    cooling_setpoint 10;
	heating_setpoint 1.0;

    object ZIPload {
  schedule_skew 354;
  heat_fraction 0.71;
  base_power LIGHTS*1.3151;
  power_pf -0.78;
  power_fraction 0.6;
  current_pf 0.42;
  current_fraction 0;
  impedance_pf -0.88;
  impedance_fraction 0.4;
};
object ZIPload {
  schedule_skew 354;
  heat_fraction 0.67;
  base_power CLOTHESWASHER*0.8809;
  power_pf 0.97;
  power_fraction 1;
  current_pf 0.97;
  current_fraction 0;
  impedance_pf 0.97;
  impedance_fraction 0;
};
object ZIPload {
  schedule_skew 354;
  heat_fraction 0.656;
  base_power REFRIGERATOR*0.7265;
  power_pf 0.97;
  power_fraction 1;
  current_pf 0.97;
  current_fraction 0;
  impedance_pf 0.97;
  impedance_fraction 0;
};
object ZIPload {
  schedule_skew 354;
  heat_fraction 0.912;
  base_power DRYER*0.4669;
  power_pf 0.9;
  power_fraction 0.1;
  current_pf 0.9;
  current_fraction 0.1;
  impedance_pf 1;
  impedance_fraction 0.8;
};
object ZIPload {
  schedule_skew 354;
  heat_fraction 0.829;
  base_power RANGE*0.4825;
  power_pf 0;
  power_fraction 0;
  current_pf 0;
  current_fraction 0;
  impedance_pf 1;
  impedance_fraction 1;
};
object ZIPload {
  schedule_skew 354;
  heat_fraction 0.865;
  base_power MICROWAVE*0.3953;
  power_pf 0.97;
  power_fraction 1;
  current_pf 0.97;
  current_fraction 0;
  impedance_pf 0.97;
  impedance_fraction 0;
};

}
object triplex_line {
	phases AS;
	from H5_meter_billing;
	to H5_ev_meter;
	length 10 ft;
	configuration TLCFG;
}

object triplex_meter {
	name H5_ev_meter;
	phases AS;
	nominal_voltage 120;
}

object load {
    name H5_ev;
    parent H5_ev_meter;
};

object triplex_line {
	phases AS;
	from F0_triplex_node_A;
	to H6_meter_billing;
	length 10 ft;
	configuration TLCFG;
}

object triplex_meter {
	name H6_meter_billing;
	phases AS;
	nominal_voltage 120;
	bill_mode UNIFORM;
    bill_day 1;
    monthly_fee 6;
    price ${FIXED_PRICE};
}

object triplex_line {
	phases AS;
	from H6_meter_billing;
	to H6_meter_house;
	length 10 ft;
	configuration TLCFG;
}

object triplex_meter {
	name H6_meter_house;
	groupid F0_meter;
	phases AS;
	nominal_voltage 120;
}

object house {
	name H6;
    groupid VPP_0;
	parent H6_meter_house;
	schedule_skew 98;
	Rroof 26.906;
	Rwall 22.244000000000003;
	Rfloor 14.241;
	Rdoors 5;
	Rwindows 1.3579999999999999;
	airchange_per_hour 0.934;
	hvac_power_factor 0.97;
	cooling_system_type ELECTRIC;
	heating_system_type NONE;
	fan_type ONE_SPEED;
	hvac_breaker_rating 200;
	total_thermal_mass_per_floor_area 2.958;
	motor_efficiency AVERAGE;
	motor_model BASIC;
	cooling_COP 3.614;
	floor_area 1415.0729999999999;
	number_of_doors 2;
	air_temperature 74;
	mass_temperature 74;
    system_mode COOL;
    thermostat_cycle_time 5;
    thermostat_mode OFF;
    cooling_setpoint 10;
	heating_setpoint 1.0;

    object ZIPload {
  schedule_skew 98;
  heat_fraction 0.874;
  base_power LIGHTS*1.8722;
  power_pf 0;
  power_fraction 0;
  current_pf 0;
  current_fraction 0;
  impedance_pf 1;
  impedance_fraction 1;
};
object ZIPload {
  schedule_skew 98;
  heat_fraction 0.737;
  base_power CLOTHESWASHER*1.0593;
  power_pf 0.97;
  power_fraction 1;
  current_pf 0.97;
  current_fraction 0;
  impedance_pf 0.97;
  impedance_fraction 0;
};
object ZIPload {
  schedule_skew 98;
  heat_fraction 0.937;
  base_power REFRIGERATOR*1.2533;
  power_pf 0.97;
  power_fraction 1;
  current_pf 0.97;
  current_fraction 0;
  impedance_pf 0.97;
  impedance_fraction 0;
};
object ZIPload {
  schedule_skew 98;
  heat_fraction 0.733;
  base_power DRYER*0.9076;
  power_pf 0.9;
  power_fraction 0.1;
  current_pf 0.9;
  current_fraction 0.1;
  impedance_pf 1;
  impedance_fraction 0.8;
};
object ZIPload {
  schedule_skew 98;
  heat_fraction 0.906;
  base_power DISHWASHER*0.9959;
  power_pf 0.97;
  power_fraction 1;
  current_pf 0.97;
  current_fraction 0;
  impedance_pf 0.97;
  impedance_fraction 0;
};
object ZIPload {
  schedule_skew 98;
  heat_fraction 0.885;
  base_power RANGE*0.9538;
  power_pf 0;
  power_fraction 0;
  current_pf 0;
  current_fraction 0;
  impedance_pf 1;
  impedance_fraction 1;
};
object ZIPload {
  schedule_skew 98;
  heat_fraction 0.707;
  base_power MICROWAVE*0.4764;
  power_pf 0.97;
  power_fraction 1;
  current_pf 0.97;
  current_fraction 0;
  impedance_pf 0.97;
  impedance_fraction 0;
};

}
object triplex_line {
	phases AS;
	from H6_meter_billing;
	to H6_ev_meter;
	length 10 ft;
	configuration TLCFG;
}

object triplex_meter {
	name H6_ev_meter;
	phases AS;
	nominal_voltage 120;
}

object load {
    name H6_ev;
    parent H6_ev_meter;
};

object triplex_line {
	phases AS;
	from F0_triplex_node_A;
	to H7_meter_billing;
	length 10 ft;
	configuration TLCFG;
}

object triplex_meter {
	name H7_meter_billing;
	phases AS;
	nominal_voltage 120;
	bill_mode UNIFORM;
    bill_day 1;
    monthly_fee 6;
    price ${FIXED_PRICE};
}

object triplex_line {
	phases AS;
	from H7_meter_billing;
	to H7_meter_house;
	length 10 ft;
	configuration TLCFG;
}

object triplex_meter {
	name H7_meter_house;
	groupid F0_meter;
	phases AS;
	nominal_voltage 120;
}

object house {
	name H7;
    groupid VPP_0;
	parent H7_meter_house;
	schedule_skew -632;
	Rroof 22.125;
	Rwall 9.198;
	Rfloor 10.351;
	Rdoors 3;
	Rwindows 1.421;
	airchange_per_hour 0.946;
	hvac_power_factor 0.97;
	cooling_system_type ELECTRIC;
	heating_system_type NONE;
	fan_type ONE_SPEED;
	hvac_breaker_rating 200;
	total_thermal_mass_per_floor_area 4.739;
	motor_efficiency AVERAGE;
	motor_model BASIC;
	cooling_COP 2.795;
	floor_area 3382.834;
	number_of_doors 4;
	air_temperature 74;
	mass_temperature 74;
    system_mode COOL;
    thermostat_cycle_time 5;
    thermostat_mode OFF;
    cooling_setpoint 10;
	heating_setpoint 1.0;

    object ZIPload {
  schedule_skew -632;
  heat_fraction 0.788;
  base_power LIGHTS*3.6456;
  power_pf -0.78;
  power_fraction 0.6;
  current_pf 0.42;
  current_fraction 0;
  impedance_pf -0.88;
  impedance_fraction 0.4;
};
object ZIPload {
  schedule_skew -632;
  heat_fraction 0.698;
  base_power CLOTHESWASHER*0.7473;
  power_pf 0.97;
  power_fraction 1;
  current_pf 0.97;
  current_fraction 0;
  impedance_pf 0.97;
  impedance_fraction 0;
};
object ZIPload {
  schedule_skew -632;
  heat_fraction 0.762;
  base_power REFRIGERATOR*1.9843;
  power_pf 0.97;
  power_fraction 1;
  current_pf 0.97;
  current_fraction 0;
  impedance_pf 0.97;
  impedance_fraction 0;
};
object ZIPload {
  schedule_skew -632;
  heat_fraction 0.747;
  base_power DRYER*1.9471;
  power_pf 0.9;
  power_fraction 0.1;
  current_pf 0.9;
  current_fraction 0.1;
  impedance_pf 1;
  impedance_fraction 0.8;
};
object ZIPload {
  schedule_skew -632;
  heat_fraction 0.873;
  base_power FREEZER*1.2327;
  power_pf 0.97;
  power_fraction 1;
  current_pf 0.97;
  current_fraction 0;
  impedance_pf 0.97;
  impedance_fraction 0;
};
object ZIPload {
  schedule_skew -632;
  heat_fraction 0.738;
  base_power DISHWASHER*0.8715;
  power_pf 0.97;
  power_fraction 1;
  current_pf 0.97;
  current_fraction 0;
  impedance_pf 0.97;
  impedance_fraction 0;
};
object ZIPload {
  schedule_skew -632;
  heat_fraction 0.816;
  base_power RANGE*1.4208;
  power_pf 0;
  power_fraction 0;
  current_pf 0;
  current_fraction 0;
  impedance_pf 1;
  impedance_fraction 1;
};
object ZIPload {
  schedule_skew -632;
  heat_fraction 0.72;
  base_power MICROWAVE*1.8149;
  power_pf 0.97;
  power_fraction 1;
  current_pf 0.97;
  current_fraction 0;
  impedance_pf 0.97;
  impedance_fraction 0;
};

}
object triplex_line {
	phases AS;
	from H7_meter_billing;
	to H7_ev_meter;
	length 10 ft;
	configuration TLCFG;
}

object triplex_meter {
	name H7_ev_meter;
	phases AS;
	nominal_voltage 120;
}

object load {
    name H7_ev;
    parent H7_ev_meter;
};

object triplex_line {
	phases AS;
	from F0_triplex_node_A;
	to H8_meter_billing;
	length 10 ft;
	configuration TLCFG;
}

object triplex_meter {
	name H8_meter_billing;
	phases AS;
	nominal_voltage 120;
	bill_mode UNIFORM;
    bill_day 1;
    monthly_fee 6;
    price ${FIXED_PRICE};
}

object triplex_line {
	phases AS;
	from H8_meter_billing;
	to H8_meter_house;
	length 10 ft;
	configuration TLCFG;
}

object triplex_meter {
	name H8_meter_house;
	groupid F0_meter;
	phases AS;
	nominal_voltage 120;
}

object house {
	name H8;
    groupid VPP_0;
	parent H8_meter_house;
	schedule_skew -640;
	Rroof 20.615;
	Rwall 9.058000000000002;
	Rfloor 10.771;
	Rdoors 3;
	Rwindows 1.391;
	airchange_per_hour 0.8759999999999999;
	hvac_power_factor 0.97;
	cooling_system_type ELECTRIC;
	heating_system_type NONE;
	fan_type ONE_SPEED;
	hvac_breaker_rating 200;
	total_thermal_mass_per_floor_area 4.579;
	motor_efficiency AVERAGE;
	motor_model BASIC;
	cooling_COP 2.885;
	floor_area 3412.084;
	number_of_doors 4;
	air_temperature 72;
	mass_temperature 72;
    system_mode COOL;
    thermostat_cycle_time 5;
    thermostat_mode OFF;
    cooling_setpoint 10;
	heating_setpoint 1.0;

    object ZIPload {
  schedule_skew -640;
  heat_fraction 0.788;
  base_power LIGHTS*3.6456;
  power_pf -0.78;
  power_fraction 0.6;
  current_pf 0.42;
  current_fraction 0;
  impedance_pf -0.88;
  impedance_fraction 0.4;
};
object ZIPload {
  schedule_skew -640;
  heat_fraction 0.698;
  base_power CLOTHESWASHER*0.7473;
  power_pf 0.97;
  power_fraction 1;
  current_pf 0.97;
  current_fraction 0;
  impedance_pf 0.97;
  impedance_fraction 0;
};
object ZIPload {
  schedule_skew -640;
  heat_fraction 0.762;
  base_power REFRIGERATOR*1.9843;
  power_pf 0.97;
  power_fraction 1;
  current_pf 0.97;
  current_fraction 0;
  impedance_pf 0.97;
  impedance_fraction 0;
};
object ZIPload {
  schedule_skew -640;
  heat_fraction 0.747;
  base_power DRYER*1.9471;
  power_pf 0.9;
  power_fraction 0.1;
  current_pf 0.9;
  current_fraction 0.1;
  impedance_pf 1;
  impedance_fraction 0.8;
};
object ZIPload {
  schedule_skew -640;
  heat_fraction 0.873;
  base_power FREEZER*1.2327;
  power_pf 0.97;
  power_fraction 1;
  current_pf 0.97;
  current_fraction 0;
  impedance_pf 0.97;
  impedance_fraction 0;
};
object ZIPload {
  schedule_skew -640;
  heat_fraction 0.738;
  base_power DISHWASHER*0.8715;
  power_pf 0.97;
  power_fraction 1;
  current_pf 0.97;
  current_fraction 0;
  impedance_pf 0.97;
  impedance_fraction 0;
};
object ZIPload {
  schedule_skew -640;