#set double_format=%+.12lg
#set profiler=1
#set randomseed=10
#set relax_naming_rules=1
#set savefile=test.xml
#set minimum_timestep=1

clock {
	timezone PST+8PDT;
	starttime '2013-07-01 00:00:00';
	stoptime '2013-07-05 00:00:00';
}

module climate;
module market;
module powerflow {
	solver_method FBS;
	NR_iteration_limit 100;
}
module residential {
	implicit_enduses NONE;
}
module tape;
module generators;

// only the heating setpoint schedule is used here
#include "${SCHED_PATH}/water_and_setpoint_schedule_v3.glm";
#include "${SCHED_PATH}/appliance_schedules.glm";

// summer
#define FIXED_PRICE=0.127
// winter
//#define FIXED_PRICE=0.088

object climate {
  name localWeather;
//     tmyfile "../../support/weather/AZ-Tucson_International_Ap.tmy3";
  interpolate QUADRATIC;
	latitude 32.133;
	longitude -111.95;
  tz_meridian -105.0;
}


class player {
      double value;
}

object player {
    name PHASE_A;
    file "phase_A.player";
    loop 1;
}
object player {
    name PHASE_B;
    file "phase_B.player";
    loop 1;
}
object player {
    name PHASE_C;
    file "phase_C.player";
    loop 1;
}

object transformer_configuration {
	name substation_config;
	connect_type WYE_WYE;
	install_type PADMOUNT;
	power_rating 450;
	powerA_rating 150 kVA;
	powerB_rating 150;
	powerC_rating 150;
	primary_voltage 133000;
	secondary_voltage 7200;
	impedance +0.0015+0.00675j;
}

object transformer_configuration {
	name default_transformer_A;
	connect_type SINGLE_PHASE_CENTER_TAPPED;
	install_type PADMOUNT;
	power_rating 150;
	powerA_rating 150 kVA;
	primary_voltage 7200;
	secondary_voltage 120;
	impedance +0.015+0.0675j;
}

object transformer_configuration {
	name default_transformer_B;
	connect_type SINGLE_PHASE_CENTER_TAPPED;
	install_type PADMOUNT;
	power_rating 150;
	powerB_rating 150;
	primary_voltage 7200;
	secondary_voltage 120;
	impedance +0.015+0.0675j;
}

object transformer_configuration {
	name default_transformer_C;
	connect_type SINGLE_PHASE_CENTER_TAPPED;
	install_type PADMOUNT;
	power_rating 150;
	powerC_rating 150;
	primary_voltage 7200;
	secondary_voltage 120;
	impedance +0.015+0.0675j;
}

// overhead line configuration
object line_configuration:601 {
  spacing line_spacing:500601;
  conductor_N overhead_line_conductor:6020;
  conductor_C overhead_line_conductor:6010;
  conductor_B overhead_line_conductor:6010;
  conductor_A overhead_line_conductor:6010;
}

object line_spacing:500601 {
  distance_CN 5.0;
  distance_AN 4.272002;
  distance_BN 5.656854;
  distance_BC 7.0;
  distance_AC 4.5;
  distance_AB 2.5;
}

object overhead_line_conductor:6010 {
  resistance 0.185900;
  geometric_mean_radius 0.031300;
}

object overhead_line_conductor:6020 {
  resistance 0.592000;
  geometric_mean_radius 0.00814;
}


object triplex_line_conductor {
	name Name_1_0_AA_triplex;
	resistance 0.57;
	geometric_mean_radius 0.011;
}

object triplex_line_configuration {
	name TLCFG;
	conductor_1 Name_1_0_AA_triplex;
	conductor_2 Name_1_0_AA_triplex;
	conductor_N Name_1_0_AA_triplex;
	insulation_thickness 0.08;
	diameter 0.368;
}



// substation for the MATPOWER/PYPOWER interface
object substation {
	name network_node;
	phases ABCN;
	nominal_voltage 133000;
	positive_sequence_voltage 133000;
	bustype SWING;
    base_power 12MVA;
    power_convergence_value 100VA;
}

// substation transformer
object transformer {
	name sub_transformer;
	groupid Network_Trans;
	phases ABCN;
	from network_node;
	to transformer_meter;
	configuration substation_config;
}

// transformer meter
object meter {
	name transformer_meter;
	phases ABCN;
	nominal_voltage 7200;
}

// unresponsive load
object load {
     name unresp_load;
     nominal_voltage 7200;
     phases ABCN;
     parent transformer_meter;
	 
     base_power_A PHASE_A.value*0.1;
     base_power_B PHASE_B.value*0.1;
     base_power_C PHASE_C.value*0.1;
	 
	 power_pf_A 0.9;
	 power_pf_B 0.9;
	 power_pf_C 0.9;
	 
	 power_fraction_A 1.0;
	 power_fraction_B 1.0;
	 power_fraction_C 1.0;
	 
	 current_fraction_A 0.0;
	 current_fraction_B 0.0;
	 current_fraction_C 0.0;
	 
	 impedance_fraction_A 0.0;
	 impedance_fraction_B 0.0;
	 impedance_fraction_C 0.0;
}

///////////////////////////////
///////code generated by python
///////////////////////////////

object transformer {
	name F0_center_tap_transformer_A;
	phases SA;
	from transformer_meter;
	to F0_triplex_node_A;
	configuration default_transformer_A;
}

object triplex_meter {
	name F0_triplex_node_A;
	phases SA;
	nominal_voltage 120;
    groupid VPP_Meter;
}


object triplex_line {
	groupid F0_Triplex_Line;
	phases AS;
	from F0_triplex_node_A;
	to F0_tpm_A0;
	length 10 ft;
	configuration TLCFG;
}

object triplex_meter {
	name F0_tpm_A0;
	groupid F0_meter;
	phases AS;
	nominal_voltage 120;
	bill_mode UNIFORM;
    bill_day 1;
    monthly_fee 6;
    price ${FIXED_PRICE};
}

//1st line;a new node;2nd line
object triplex_line {
     from F0_tpm_A0;
     to F0_tpm_A0_node;
     phases AS;
     length 1 ft;
     configuration TLCFG;
}

//a new node;
object triplex_meter {     
     name F0_tpm_A0_node;
     phases AS;
     nominal_voltage 120.00;     
} 

//2nd line
object triplex_line {
     from F0_tpm_A0_node;
     to house_F0_tpm_A0;
     phases AS;
     length 1 ft;
     configuration TLCFG;
}

// the new meter for the house
object triplex_meter {
	name house_F0_tpm_A0;
	phases AS;
	nominal_voltage 120;
	groupid house_meter;
}

object house {
	name F0_house_A0;
    groupid VPP_0;
	parent house_F0_tpm_A0;
	schedule_skew -1421;
	Rroof 12.949;
	Rwall 6.692;
	Rfloor 4.212;
	Rdoors 3;
	Rwindows 1.475;
	airchange_per_hour 1.3639999999999999;
	hvac_power_factor 0.97;
	cooling_system_type ELECTRIC;
	heating_system_type GAS;
	fan_type ONE_SPEED;
	hvac_breaker_rating 200;
	total_thermal_mass_per_floor_area 4.813;
	motor_efficiency AVERAGE;
	motor_model BASIC;
	cooling_COP 3.096;
	floor_area 820.198;
	number_of_doors 1;
	air_temperature 68.79100000000001;
	mass_temperature 68.79100000000001;
    system_mode COOL;
    thermostat_cycle_time 5;
    thermostat_mode OFF;
    cooling_setpoint 20;
	heating_setpoint 20;

    object ZIPload {
  schedule_skew -1421;
  heat_fraction 0.868;
  base_power LIGHTS*1.2861;
  power_pf -0.78;
  power_fraction 0.6;
  current_pf 0.42;
  current_fraction 0;
  impedance_pf -0.88;
  impedance_fraction 0.4;
};
object ZIPload {
  schedule_skew -1421;
  heat_fraction 0.685;
  base_power CLOTHESWASHER*0.4944;
  power_pf 0.97;
  power_fraction 1;
  current_pf 0.97;
  current_fraction 0;
  impedance_pf 0.97;
  impedance_fraction 0;
};
object ZIPload {
  schedule_skew -1421;
  heat_fraction 0.699;
  base_power REFRIGERATOR*0.4950;
  power_pf 0.97;
  power_fraction 1;
  current_pf 0.97;
  current_fraction 0;
  impedance_pf 0.97;
  impedance_fraction 0;
};
object ZIPload {
  schedule_skew -1421;
  heat_fraction 0.906;
  base_power DISHWASHER*0.8753;
  power_pf 0.97;
  power_fraction 1;
  current_pf 0.97;
  current_fraction 0;
  impedance_pf 0.97;
  impedance_fraction 0;
};
object ZIPload {
  schedule_skew -1421;
  heat_fraction 0.865;
  base_power RANGE*0.3988;
  power_pf 0;
  power_fraction 0;
  current_pf 0;
  current_fraction 0;
  impedance_pf 1;
  impedance_fraction 1;
};
object ZIPload {
  schedule_skew -1421;
  heat_fraction 0.822;
  base_power MICROWAVE*0.4758;
  power_pf 0.97;
  power_fraction 1;
  current_pf 0.97;
  current_fraction 0;
  impedance_pf 0.97;
  impedance_fraction 0;
};

}

object load {
    name F0_house_A0_EV;
    parent F0_tpm_A0;
};

object triplex_meter {
	name solar_F0_tpm_A0;
	parent F0_tpm_A0;
	phases AS;
	nominal_voltage 120;
	groupid inverter_meter;
}

object inverter {
	name solar_inv_F0_house_A0;
    parent solar_F0_tpm_A0;
	phases AS;
	inverter_type FOUR_QUADRANT;
	power_factor 1;
	// use_multipoint_efficiency TRUE;
	inverter_manufacturer XANTREX;
	maximum_dc_power 6048.0; 
	four_quadrant_control_mode CONSTANT_PQ;
	generator_status ONLINE;
	rated_power 6048.0;	
	inverter_efficiency 0.90;
	Q_Out 0;
    P_Out 0;
	object solar {
		name solar_F0_house_A0;
		// generator_mode SUPPLY_DRIVEN;
		// generator_status ONLINE;
		panel_type SINGLE_CRYSTAL_SILICON;
		orientation FIXED_AXIS; 
		rated_power 6720;
	};
}


object triplex_line {
	groupid F0_Triplex_Line;
	phases AS;
	from F0_triplex_node_A;
	to F0_tpm_A1;
	length 10 ft;
	configuration TLCFG;
}

object triplex_meter {
	name F0_tpm_A1;
	groupid F0_meter;
	phases AS;
	nominal_voltage 120;
	bill_mode UNIFORM;
    bill_day 1;
    monthly_fee 6;
    price ${FIXED_PRICE};
}

//1st line;a new node;2nd line
object triplex_line {
     from F0_tpm_A1;
     to F0_tpm_A1_node;
     phases AS;
     length 1 ft;
     configuration TLCFG;
}

//a new node;
object triplex_meter {     
     name F0_tpm_A1_node;
     phases AS;
     nominal_voltage 120.00;     
} 

//2nd line
object triplex_line {
     from F0_tpm_A1_node;
     to house_F0_tpm_A1;
     phases AS;
     length 1 ft;
     configuration TLCFG;
}

// the new meter for the house
object triplex_meter {
	name house_F0_tpm_A1;
	phases AS;
	nominal_voltage 120;
	groupid house_meter;
}

object house {
	name F0_house_A1;
    groupid VPP_0;
	parent house_F0_tpm_A1;
	schedule_skew 2926;
	Rroof 28.32;
	Rwall 19.825;
	Rfloor 16.279999999999998;
	Rdoors 5;
	Rwindows 2.311;
	airchange_per_hour 1.117;
	hvac_power_factor 0.97;
	cooling_system_type ELECTRIC;
	heating_system_type GAS;
	fan_type ONE_SPEED;
	hvac_breaker_rating 200;
	total_thermal_mass_per_floor_area 3.2960000000000003;
	motor_efficiency AVERAGE;
	motor_model BASIC;
	cooling_COP 4.071;
	floor_area 1446.424;
	number_of_doors 2;
	air_temperature 70.246;
	mass_temperature 70.246;
    system_mode COOL;
    thermostat_cycle_time 5;
    thermostat_mode OFF;
    cooling_setpoint 20;
	heating_setpoint 20;

    object ZIPload {
  schedule_skew 2926;
  heat_fraction 0.73;
  base_power LIGHTS*1.8146;
  power_pf -0.78;
  power_fraction 0.6;
  current_pf 0.42;
  current_fraction 0;
  impedance_pf -0.88;
  impedance_fraction 0.4;
};
object ZIPload {
  schedule_skew 2926;
  heat_fraction 0.66;
  base_power CLOTHESWASHER*0.5212;
  power_pf 0.97;
  power_fraction 1;
  current_pf 0.97;
  current_fraction 0;
  impedance_pf 0.97;
  impedance_fraction 0;
};
object ZIPload {
  schedule_skew 2926;
  heat_fraction 0.723;
  base_power REFRIGERATOR*1.1318;
  power_pf 0.97;
  power_fraction 1;
  current_pf 0.97;
  current_fraction 0;
  impedance_pf 0.97;
  impedance_fraction 0;
};
object ZIPload {
  schedule_skew 2926;
  heat_fraction 0.851;
  base_power DRYER*1.2189;
  power_pf 0.9;
  power_fraction 0.1;
  current_pf 0.9;
  current_fraction 0.1;
  impedance_pf 1;
  impedance_fraction 0.8;
};
object ZIPload {
  schedule_skew 2926;
  heat_fraction 0.776;
  base_power DISHWASHER*0.7379;
  power_pf 0.97;
  power_fraction 1;
  current_pf 0.97;
  current_fraction 0;
  impedance_pf 0.97;
  impedance_fraction 0;
};
object ZIPload {
  schedule_skew 2926;
  heat_fraction 0.929;
  base_power RANGE*0.5542;
  power_pf 0;
  power_fraction 0;
  current_pf 0;
  current_fraction 0;
  impedance_pf 1;
  impedance_fraction 1;
};
object ZIPload {
  schedule_skew 2926;
  heat_fraction 0.873;
  base_power MICROWAVE*0.5019;
  power_pf 0.97;
  power_fraction 1;
  current_pf 0.97;
  current_fraction 0;
  impedance_pf 0.97;
  impedance_fraction 0;
};

}

object load {
    name F0_house_A1_EV;
    parent F0_tpm_A1;
};

object triplex_meter {
	name solar_F0_tpm_A1;
	parent F0_tpm_A1;
	phases AS;
	nominal_voltage 120;
	groupid inverter_meter;
}

object inverter {
	name solar_inv_F0_house_A1;
    parent solar_F0_tpm_A1;
	phases AS;
	inverter_type FOUR_QUADRANT;
	power_factor 1;
	// use_multipoint_efficiency TRUE;
	inverter_manufacturer XANTREX;
	maximum_dc_power 4320.0; 
	four_quadrant_control_mode CONSTANT_PQ;
	generator_status ONLINE;
	rated_power 4320.0;	
	inverter_efficiency 0.90;
	Q_Out 0;
    P_Out 0;
	object solar {
		name solar_F0_house_A1;
		// generator_mode SUPPLY_DRIVEN;
		// generator_status ONLINE;
		panel_type SINGLE_CRYSTAL_SILICON;
		orientation FIXED_AXIS; 
		rated_power 4800;
	};
}


object triplex_line {
	groupid F0_Triplex_Line;
	phases AS;
	from F0_triplex_node_A;
	to F0_tpm_A2;
	length 10 ft;
	configuration TLCFG;
}

object triplex_meter {
	name F0_tpm_A2;
	groupid F0_meter;
	phases AS;
	nominal_voltage 120;
	bill_mode UNIFORM;
    bill_day 1;
    monthly_fee 6;
    price ${FIXED_PRICE};
}

//1st line;a new node;2nd line
object triplex_line {
     from F0_tpm_A2;
     to F0_tpm_A2_node;
     phases AS;
     length 1 ft;
     configuration TLCFG;
}

//a new node;
object triplex_meter {     
     name F0_tpm_A2_node;
     phases AS;
     nominal_voltage 120.00;     
} 

//2nd line
object triplex_line {
     from F0_tpm_A2_node;
     to house_F0_tpm_A2;
     phases AS;
     length 1 ft;
     configuration TLCFG;
}

// the new meter for the house
object triplex_meter {
	name house_F0_tpm_A2;
	phases AS;
	nominal_voltage 120;
	groupid house_meter;
}

object house {
	name F0_house_A2;
    groupid VPP_0;
	parent house_F0_tpm_A2;
	schedule_skew -888;
	Rroof 27.331;
	Rwall 20.417999999999996;
	Rfloor 12.588000000000001;
	Rdoors 5;
	Rwindows 1.386;
	airchange_per_hour 1.186;
	hvac_power_factor 0.97;
	cooling_system_type ELECTRIC;
	heating_system_type GAS;
	fan_type ONE_SPEED;
	hvac_breaker_rating 200;
	total_thermal_mass_per_floor_area 4.78;
	motor_efficiency AVERAGE;
	motor_model BASIC;
	cooling_COP 3.45;
	floor_area 1473.131;
	number_of_doors 2;
	air_temperature 70.769;
	mass_temperature 70.769;
    system_mode COOL;
    thermostat_cycle_time 5;
    thermostat_mode OFF;
    cooling_setpoint 20;
	heating_setpoint 20;

    object ZIPload {
  schedule_skew -888;
  heat_fraction 0.918;
  base_power LIGHTS*1.4554;
  power_pf -0.78;
  power_fraction 0.6;
  current_pf 0.42;
  current_fraction 0;
  impedance_pf -0.88;
  impedance_fraction 0.4;
};
object ZIPload {
  schedule_skew -888;
  heat_fraction 0.83;
  base_power CLOTHESWASHER*1.2004;
  power_pf 0.97;
  power_fraction 1;
  current_pf 0.97;
  current_fraction 0;
  impedance_pf 0.97;
  impedance_fraction 0;
};
object ZIPload {
  schedule_skew -888;
  heat_fraction 0.765;
  base_power REFRIGERATOR*0.8814;
  power_pf 0.97;
  power_fraction 1;
  current_pf 0.97;
  current_fraction 0;
  impedance_pf 0.97;
  impedance_fraction 0;
};
object ZIPload {
  schedule_skew -888;
  heat_fraction 0.692;
  base_power DRYER*1.1884;
  power_pf 0.9;
  power_fraction 0.1;
  current_pf 0.9;
  current_fraction 0.1;
  impedance_pf 1;
  impedance_fraction 0.8;
};
object ZIPload {
  schedule_skew -888;
  heat_fraction 0.906;
  base_power RANGE*0.9186;
  power_pf 0;
  power_fraction 0;
  current_pf 0;
  current_fraction 0;
  impedance_pf 1;
  impedance_fraction 1;
};
object ZIPload {
  schedule_skew -888;
  heat_fraction 0.8;
  base_power MICROWAVE*0.4692;
  power_pf 0.97;
  power_fraction 1;
  current_pf 0.97;
  current_fraction 0;
  impedance_pf 0.97;
  impedance_fraction 0;
};

}

object load {
    name F0_house_A2_EV;
    parent F0_tpm_A2;
};

object triplex_meter {
	name solar_F0_tpm_A2;
	parent F0_tpm_A2;
	phases AS;
	nominal_voltage 120;
	groupid inverter_meter;
}

object inverter {
	name solar_inv_F0_house_A2;
    parent solar_F0_tpm_A2;
	phases AS;
	inverter_type FOUR_QUADRANT;
	power_factor 1;
	// use_multipoint_efficiency TRUE;
	inverter_manufacturer XANTREX;
	maximum_dc_power 3456.0; 
	four_quadrant_control_mode CONSTANT_PQ;
	generator_status ONLINE;
	rated_power 3456.0;	
	inverter_efficiency 0.90;
	Q_Out 0;
    P_Out 0;
	object solar {
		name solar_F0_house_A2;
		// generator_mode SUPPLY_DRIVEN;
		// generator_status ONLINE;
		panel_type SINGLE_CRYSTAL_SILICON;
		orientation FIXED_AXIS; 
		rated_power 3840;
	};
}


object triplex_line {
	groupid F0_Triplex_Line;
	phases AS;
	from F0_triplex_node_A;
	to F0_tpm_A3;
	length 10 ft;
	configuration TLCFG;
}

object triplex_meter {
	name F0_tpm_A3;
	groupid F0_meter;
	phases AS;
	nominal_voltage 120;
	bill_mode UNIFORM;
    bill_day 1;
    monthly_fee 6;
    price ${FIXED_PRICE};
}

//1st line;a new node;2nd line
object triplex_line {
     from F0_tpm_A3;
     to F0_tpm_A3_node;
     phases AS;
     length 1 ft;
     configuration TLCFG;
}

//a new node;
object triplex_meter {     
     name F0_tpm_A3_node;
     phases AS;
     nominal_voltage 120.00;     
} 

//2nd line
object triplex_line {
     from F0_tpm_A3_node;
     to house_F0_tpm_A3;
     phases AS;
     length 1 ft;
     configuration TLCFG;
}

// the new meter for the house
object triplex_meter {
	name house_F0_tpm_A3;
	phases AS;
	nominal_voltage 120;
	groupid house_meter;
}

object house {
	name F0_house_A3;
    groupid VPP_0;
	parent house_F0_tpm_A3;
	schedule_skew -895;
	Rroof 27.361;
	Rwall 22.574;
	Rfloor 13.534999999999998;
	Rdoors 5;
	Rwindows 1.34;
	airchange_per_hour 1.1520000000000001;
	hvac_power_factor 0.97;
	cooling_system_type ELECTRIC;
	heating_system_type GAS;
	fan_type ONE_SPEED;
	hvac_breaker_rating 200;
	total_thermal_mass_per_floor_area 4.325;
	motor_efficiency AVERAGE;
	motor_model BASIC;
	cooling_COP 3.8369999999999997;
	floor_area 1349.234;
	number_of_doors 2;
	air_temperature 70.024;
	mass_temperature 70.024;
    system_mode COOL;
    thermostat_cycle_time 5;
    thermostat_mode OFF;
    cooling_setpoint 20;
	heating_setpoint 20;

    object ZIPload {
  schedule_skew -895;
  heat_fraction 0.851;
  base_power LIGHTS*0.9811;
  power_pf 0;
  power_fraction 0;
  current_pf 0;
  current_fraction 0;
  impedance_pf 1;
  impedance_fraction 1;
};
object ZIPload {
  schedule_skew -895;
  heat_fraction 0.83;
  base_power CLOTHESWASHER*0.5962;
  power_pf 0.97;
  power_fraction 1;
  current_pf 0.97;
  current_fraction 0;
  impedance_pf 0.97;
  impedance_fraction 0;
};
object ZIPload {
  schedule_skew -895;
  heat_fraction 0.671;
  base_power REFRIGERATOR*1.1742;
  power_pf 0.97;
  power_fraction 1;
  current_pf 0.97;
  current_fraction 0;
  impedance_pf 0.97;
  impedance_fraction 0;
};
object ZIPload {
  schedule_skew -895;
  heat_fraction 0.924;
  base_power DRYER*0.6654;
  power_pf 0.9;
  power_fraction 0.1;
  current_pf 0.9;
  current_fraction 0.1;
  impedance_pf 1;
  impedance_fraction 0.8;
};
object ZIPload {
  schedule_skew -895;
  heat_fraction 0.923;
  base_power RANGE*0.4997;
  power_pf 0;
  power_fraction 0;
  current_pf 0;
  current_fraction 0;
  impedance_pf 1;
  impedance_fraction 1;
};
object ZIPload {
  schedule_skew -895;
  heat_fraction 0.693;
  base_power MICROWAVE*0.5191;
  power_pf 0.97;
  power_fraction 1;
  current_pf 0.97;
  current_fraction 0;
  impedance_pf 0.97;
  impedance_fraction 0;
};

}

object load {
    name F0_house_A3_EV;
    parent F0_tpm_A3;
};

object triplex_meter {
	name solar_F0_tpm_A3;
	parent F0_tpm_A3;
	phases AS;
	nominal_voltage 120;
	groupid inverter_meter;
}

object inverter {
	name solar_inv_F0_house_A3;
    parent solar_F0_tpm_A3;
	phases AS;
	inverter_type FOUR_QUADRANT;
	power_factor 1;
	// use_multipoint_efficiency TRUE;
	inverter_manufacturer XANTREX;
	maximum_dc_power 4752.0; 
	four_quadrant_control_mode CONSTANT_PQ;
	generator_status ONLINE;
	rated_power 4752.0;	
	inverter_efficiency 0.90;
	Q_Out 0;
    P_Out 0;
	object solar {
		name solar_F0_house_A3;
		// generator_mode SUPPLY_DRIVEN;
		// generator_status ONLINE;
		panel_type SINGLE_CRYSTAL_SILICON;
		orientation FIXED_AXIS; 
		rated_power 5280;
	};
}


object triplex_line {
	groupid F0_Triplex_Line;
	phases AS;
	from F0_triplex_node_A;
	to F0_tpm_A4;
	length 10 ft;
	configuration TLCFG;
}

object triplex_meter {
	name F0_tpm_A4;
	groupid F0_meter;
	phases AS;
	nominal_voltage 120;
	bill_mode UNIFORM;
    bill_day 1;
    monthly_fee 6;
    price ${FIXED_PRICE};
}

//1st line;a new node;2nd line
object triplex_line {
     from F0_tpm_A4;
     to F0_tpm_A4_node;
     phases AS;
     length 1 ft;
     configuration TLCFG;
}

//a new node;
object triplex_meter {     
     name F0_tpm_A4_node;
     phases AS;
     nominal_voltage 120.00;     
} 

//2nd line
object triplex_line {
     from F0_tpm_A4_node;
     to house_F0_tpm_A4;
     phases AS;
     length 1 ft;
     configuration TLCFG;
}

// the new meter for the house
object triplex_meter {
	name house_F0_tpm_A4;
	phases AS;
	nominal_voltage 120;
	groupid house_meter;
}

object house {
	name F0_house_A4;
    groupid VPP_0;
	parent house_F0_tpm_A4;
	schedule_skew -879;
	Rroof 28.650999999999996;
	Rwall 20.377999999999997;
	Rfloor 12.848;
	Rdoors 5;
	Rwindows 1.376;
	airchange_per_hour 1.206;
	hvac_power_factor 0.97;
	cooling_system_type ELECTRIC;
	heating_system_type GAS;
	fan_type ONE_SPEED;
	hvac_breaker_rating 200;
	total_thermal_mass_per_floor_area 4.930000000000001;
	motor_efficiency AVERAGE;
	motor_model BASIC;
	cooling_COP 3.55;
	floor_area 1447.371;
	number_of_doors 2;
	air_temperature 69.769;
	mass_temperature 69.769;
    system_mode COOL;
    thermostat_cycle_time 5;
    thermostat_mode OFF;
    cooling_setpoint 20;
	heating_setpoint 20;

    object ZIPload {
  schedule_skew -879;
  heat_fraction 0.918;
  base_power LIGHTS*1.4554;
  power_pf -0.78;
  power_fraction 0.6;
  current_pf 0.42;
  current_fraction 0;
  impedance_pf -0.88;
  impedance_fraction 0.4;
};
object ZIPload {
  schedule_skew -879;
  heat_fraction 0.83;
  base_power CLOTHESWASHER*1.2004;
  power_pf 0.97;
  power_fraction 1;
  current_pf 0.97;
  current_fraction 0;
  impedance_pf 0.97;
  impedance_fraction 0;
};
object ZIPload {
  schedule_skew -879;
  heat_fraction 0.765;
  base_power REFRIGERATOR*0.8814;
  power_pf 0.97;
  power_fraction 1;
  current_pf 0.97;
  current_fraction 0;
  impedance_pf 0.97;
  impedance_fraction 0;
};
object ZIPload {
  schedule_skew -879;
  heat_fraction 0.692;
  base_power DRYER*1.1884;
  power_pf 0.9;
  power_fraction 0.1;
  current_pf 0.9;
  current_fraction 0.1;
  impedance_pf 1;
  impedance_fraction 0.8;
};
object ZIPload {
  schedule_skew -879;
  heat_fraction 0.906;
  base_power RANGE*0.9186;
  power_pf 0;
  power_fraction 0;
  current_pf 0;
  current_fraction 0;
  impedance_pf 1;
  impedance_fraction 1;
};
object ZIPload {
  schedule_skew -879;
  heat_fraction 0.8;
  base_power MICROWAVE*0.4692;
  power_pf 0.97;
  power_fraction 1;
  current_pf 0.97;
  current_fraction 0;
  impedance_pf 0.97;
  impedance_fraction 0;
};

}

object load {
    name F0_house_A4_EV;
    parent F0_tpm_A4;
};

object triplex_meter {
	name solar_F0_tpm_A4;
	parent F0_tpm_A4;
	phases AS;
	nominal_voltage 120;
	groupid inverter_meter;
}

object inverter {
	name solar_inv_F0_house_A4;
    parent solar_F0_tpm_A4;
	phases AS;
	inverter_type FOUR_QUADRANT;
	power_factor 1;
	// use_multipoint_efficiency TRUE;
	inverter_manufacturer XANTREX;
	maximum_dc_power 4752.0; 
	four_quadrant_control_mode CONSTANT_PQ;
	generator_status ONLINE;
	rated_power 4752.0;	
	inverter_efficiency 0.90;
	Q_Out 0;
    P_Out 0;
	object solar {
		name solar_F0_house_A4;
		// generator_mode SUPPLY_DRIVEN;
		// generator_status ONLINE;
		panel_type SINGLE_CRYSTAL_SILICON;
		orientation FIXED_AXIS; 
		rated_power 5280;
	};
}


object triplex_line {
	groupid F0_Triplex_Line;
	phases AS;
	from F0_triplex_node_A;
	to F0_tpm_A5;
	length 10 ft;
	configuration TLCFG;
}

object triplex_meter {
	name F0_tpm_A5;
	groupid F0_meter;
	phases AS;
	nominal_voltage 120;
	bill_mode UNIFORM;
    bill_day 1;
    monthly_fee 6;
    price ${FIXED_PRICE};
}

//1st line;a new node;2nd line
object triplex_line {
     from F0_tpm_A5;
     to F0_tpm_A5_node;
     phases AS;
     length 1 ft;
     configuration TLCFG;
}

//a new node;
object triplex_meter {     
     name F0_tpm_A5_node;
     phases AS;
     nominal_voltage 120.00;     
} 

//2nd line
object triplex_line {
     from F0_tpm_A5_node;
     to house_F0_tpm_A5;
     phases AS;
     length 1 ft;
     configuration TLCFG;
}

// the new meter for the house
object triplex_meter {
	name house_F0_tpm_A5;
	phases AS;
	nominal_voltage 120;
	groupid house_meter;
}

object house {
	name F0_house_A5;
    groupid VPP_0;
	parent house_F0_tpm_A5;
	schedule_skew 94;
	Rroof 27.666;
	Rwall 20.734;
	Rfloor 13.960999999999999;
	Rdoors 5;
	Rwindows 1.388;
	airchange_per_hour 0.984;
	hvac_power_factor 0.97;
	cooling_system_type ELECTRIC;
	heating_system_type GAS;
	fan_type ONE_SPEED;
	hvac_breaker_rating 200;
	total_thermal_mass_per_floor_area 3.228;
	motor_efficiency AVERAGE;
	motor_model BASIC;
	cooling_COP 3.434;
	floor_area 1421.3229999999999;
	number_of_doors 2;
	air_temperature 68.569;
	mass_temperature 68.569;
    system_mode COOL;
    thermostat_cycle_time 5;
    thermostat_mode OFF;
    cooling_setpoint 20;
	heating_setpoint 20;

    object ZIPload {
  schedule_skew 94;
  heat_fraction 0.874;
  base_power LIGHTS*1.8722;
  power_pf 0;
  power_fraction 0;
  current_pf 0;
  current_fraction 0;
  impedance_pf 1;
  impedance_fraction 1;
};
object ZIPload {
  schedule_skew 94;
  heat_fraction 0.737;
  base_power CLOTHESWASHER*1.0593;
  power_pf 0.97;
  power_fraction 1;
  current_pf 0.97;
  current_fraction 0;
  impedance_pf 0.97;
  impedance_fraction 0;
};
object ZIPload {
  schedule_skew 94;
  heat_fraction 0.937;
  base_power REFRIGERATOR*1.2533;
  power_pf 0.97;
  power_fraction 1;
  current_pf 0.97;
  current_fraction 0;
  impedance_pf 0.97;
  impedance_fraction 0;
};
object ZIPload {
  schedule_skew 94;
  heat_fraction 0.733;
  base_power DRYER*0.9076;
  power_pf 0.9;
  power_fraction 0.1;
  current_pf 0.9;
  current_fraction 0.1;
  impedance_pf 1;
  impedance_fraction 0.8;
};
object ZIPload {
  schedule_skew 94;
  heat_fraction 0.906;
  base_power DISHWASHER*0.9959;
  power_pf 0.97;
  power_fraction 1;
  current_pf 0.97;
  current_fraction 0;
  impedance_pf 0.97;
  impedance_fraction 0;
};
object ZIPload {
  schedule_skew 94;
  heat_fraction 0.885;
  base_power RANGE*0.9538;
  power_pf 0;
  power_fraction 0;
  current_pf 0;
  current_fraction 0;
  impedance_pf 1;
  impedance_fraction 1;
};
object ZIPload {
  schedule_skew 94;
  heat_fraction 0.707;
  base_power MICROWAVE*0.4764;
  power_pf 0.97;
  power_fraction 1;
  current_pf 0.97;
  current_fraction 0;
  impedance_pf 0.97;
  impedance_fraction 0;
};

}

object load {
    name F0_house_A5_EV;
    parent F0_tpm_A5;
};

object triplex_meter {
	name solar_F0_tpm_A5;
	parent F0_tpm_A5;
	phases AS;
	nominal_voltage 120;
	groupid inverter_meter;
}

object inverter {
	name solar_inv_F0_house_A5;
    parent solar_F0_tpm_A5;
	phases AS;
	inverter_type FOUR_QUADRANT;
	power_factor 1;
	// use_multipoint_efficiency TRUE;
	inverter_manufacturer XANTREX;
	maximum_dc_power 7344.0; 
	four_quadrant_control_mode CONSTANT_PQ;
	generator_status ONLINE;
	rated_power 7344.0;	
	inverter_efficiency 0.90;
	Q_Out 0;
    P_Out 0;
	object solar {
		name solar_F0_house_A5;
		// generator_mode SUPPLY_DRIVEN;
		// generator_status ONLINE;
		panel_type SINGLE_CRYSTAL_SILICON;
		orientation FIXED_AXIS; 
		rated_power 8160;
	};
}


object triplex_line {
	groupid F0_Triplex_Line;
	phases AS;
	from F0_triplex_node_A;
	to F0_tpm_A6;
	length 10 ft;
	configuration TLCFG;
}

object triplex_meter {
	name F0_tpm_A6;
	groupid F0_meter;
	phases AS;
	nominal_voltage 120;
	bill_mode UNIFORM;
    bill_day 1;
    monthly_fee 6;
    price ${FIXED_PRICE};
}

//1st line;a new node;2nd line
object triplex_line {
     from F0_tpm_A6;
     to F0_tpm_A6_node;
     phases AS;
     length 1 ft;
     configuration TLCFG;
}

//a new node;
object triplex_meter {     
     name F0_tpm_A6_node;
     phases AS;
     nominal_voltage 120.00;     
} 

//2nd line
object triplex_line {
     from F0_tpm_A6_node;
     to house_F0_tpm_A6;
     phases AS;
     length 1 ft;
     configuration TLCFG;
}

// the new meter for the house
object triplex_meter {
	name house_F0_tpm_A6;
	phases AS;
	nominal_voltage 120;
	groupid house_meter;
}

object house {
	name F0_house_A6;
    groupid VPP_0;
	parent house_F0_tpm_A6;
	schedule_skew -480;
	Rroof 17.625999999999998;
	Rwall 4.773;
	Rfloor 5.364;
	Rdoors 3;
	Rwindows 1.5570000000000002;
	airchange_per_hour 1.317;
	hvac_power_factor 0.97;
	cooling_system_type ELECTRIC;
	heating_system_type GAS;
	fan_type ONE_SPEED;
	hvac_breaker_rating 200;
	total_thermal_mass_per_floor_area 3.499;
	motor_efficiency AVERAGE;
	motor_model BASIC;
	cooling_COP 2.392;
	floor_area 857.403;
	number_of_doors 1;
	air_temperature 70.422;
	mass_temperature 70.422;
    system_mode COOL;
    thermostat_cycle_time 5;
    thermostat_mode OFF;
    cooling_setpoint 20;
	heating_setpoint 20;

    object ZIPload {
  schedule_skew -480;
  heat_fraction 0.86;
  base_power LIGHTS*0.8293;
  power_pf -0.78;
  power_fraction 0.6;
  current_pf 0.42;
  current_fraction 0;
  impedance_pf -0.88;
  impedance_fraction 0.4;
};
object ZIPload {
  schedule_skew -480;
  heat_fraction 0.687;
  base_power CLOTHESWASHER*0.9734;
  power_pf 0.97;
  power_fraction 1;
  current_pf 0.97;
  current_fraction 0;
  impedance_pf 0.97;
  impedance_fraction 0;
};
object ZIPload {
  schedule_skew -480;
  heat_fraction 0.888;
  base_power REFRIGERATOR*0.7271;
  power_pf 0.97;
  power_fraction 1;
  current_pf 0.97;
  current_fraction 0;
  impedance_pf 0.97;
  impedance_fraction 0;
};
object ZIPload {
  schedule_skew -480;
  heat_fraction 0.656;
  base_power DRYER*0.4851;
  power_pf 0.9;
  power_fraction 0.1;
  current_pf 0.9;
  current_fraction 0.1;
  impedance_pf 1;
  impedance_fraction 0.8;
};
object ZIPload {
  schedule_skew -480;
  heat_fraction 0.753;
  base_power DISHWASHER*0.6316;
  power_pf 0.97;
  power_fraction 1;
  current_pf 0.97;
  current_fraction 0;
  impedance_pf 0.97;
  impedance_fraction 0;
};
object ZIPload {
  schedule_skew -480;
  heat_fraction 0.71;
  base_power RANGE*0.8467;
  power_pf 0;
  power_fraction 0;
  current_pf 0;
  current_fraction 0;
  impedance_pf 1;
  impedance_fraction 1;
};
object ZIPload {
  schedule_skew -480;
  heat_fraction 0.868;
  base_power MICROWAVE*0.5315;
  power_pf 0.97;
  power_fraction 1;
  current_pf 0.97;
  current_fraction 0;
  impedance_pf 0.97;
  impedance_fraction 0;
};

}

object load {
    name F0_house_A6_EV;
    parent F0_tpm_A6;
};

object triplex_meter {
	name solar_F0_tpm_A6;
	parent F0_tpm_A6;
	phases AS;